<?xml version="1.0" encoding="UTF-8"?>

<!-- generated on Thursday 28 January 2021 08:17:13 PM IST by Eclipse SUMO netedit Version 1.8.0
<configuration xmlns:xsi="http://www.w3.org/2001/XMLSchema-instance" xsi:noNamespaceSchemaLocation="http://sumo.dlr.de/xsd/netconvertConfiguration.xsd">

    <input>
        <sumo-net-file value="/home/vishwajeet/Documents/projects/prof/patrolling/pat_code/maps/asymmetric/complex_final.net.xml"/>
    </input>

    <output>
        <output-file value="/home/vishwajeet/Documents/projects/prof/patrolling/pat_code/maps/asymmetric/complex_final.net.xml"/>
    </output>

    <processing>
        <geometry.min-radius.fix.railways value="false"/>
        <geometry.max-grade.fix value="false"/>
        <offset.disable-normalization value="true"/>
        <lefthand value="false"/>
    </processing>

    <junctions>
        <no-turnarounds value="true"/>
        <junctions.corner-detail value="5"/>
        <junctions.limit-turn-speed value="5.5"/>
        <rectangular-lane-cut value="false"/>
    </junctions>

    <pedestrian>
        <walkingareas value="false"/>
    </pedestrian>

    <report>
        <aggregate-warnings value="5"/>
    </report>

</configuration>
-->

<net version="1.6" junctionCornerDetail="5" limitTurnSpeed="5.50" xmlns:xsi="http://www.w3.org/2001/XMLSchema-instance" xsi:noNamespaceSchemaLocation="http://sumo.dlr.de/xsd/net_file.xsd">

    <location netOffset="0.00,0.00" convBoundary="200.00,-700.00,1600.00,400.00" origBoundary="-10000000000.00,-10000000000.00,10000000000.00,10000000000.00" projParameter="!"/>

    <edge id=":0_0" function="internal">
        <lane id=":0_0_0" index="0" speed="9.82" length="21.91" shape="198.40,-689.51 199.34,-694.80 202.15,-698.58 206.85,-700.84 213.42,-701.60"/>
    </edge>
    <edge id=":0_1" function="internal">
        <lane id=":0_1_0" index="0" speed="7.75" length="10.40" shape="198.40,-689.51 199.23,-694.88 201.70,-697.27 203.21,-697.06"/>
    </edge>
    <edge id=":0_6" function="internal">
        <lane id=":0_6_0" index="0" speed="7.75" length="9.45" shape="203.21,-697.06 205.83,-696.68 211.62,-693.09"/>
    </edge>
    <edge id=":0_2" function="internal">
        <lane id=":0_2_0" index="0" speed="6.04" length="11.48" shape="209.67,-690.56 206.14,-692.81 203.62,-693.39 202.10,-692.29 201.60,-689.51"/>
    </edge>
    <edge id=":0_3" function="internal">
        <lane id=":0_3_0" index="0" speed="7.57" length="21.37" shape="209.67,-690.56 204.51,-695.39 203.42,-698.84 206.39,-700.91 213.42,-701.60"/>
    </edge>
    <edge id=":0_4" function="internal">
        <lane id=":0_4_0" index="0" speed="5.46" length="10.27" shape="213.42,-698.40 210.04,-698.07 208.61,-697.07 209.14,-695.42 211.62,-693.09"/>
    </edge>
    <edge id=":0_5" function="internal">
        <lane id=":0_5_0" index="0" speed="8.65" length="16.77" shape="213.42,-698.40 208.25,-697.84 204.55,-696.18 202.34,-693.40 201.60,-689.51"/>
    </edge>
    <edge id=":1_0" function="internal">
        <lane id=":1_0_0" index="0" speed="6.57" length="9.12" shape="607.15,-698.40 604.70,-698.05 602.94,-696.98 601.87,-695.21 601.48,-692.72"/>
    </edge>
    <edge id=":1_1" function="internal">
        <lane id=":1_1_0" index="0" speed="13.89" length="14.40" shape="607.15,-698.40 592.75,-698.40"/>
    </edge>
    <edge id=":1_2" function="internal">
        <lane id=":1_2_0" index="0" speed="13.89" length="14.40" shape="592.75,-701.60 607.15,-701.60"/>
    </edge>
    <edge id=":1_3" function="internal">
        <lane id=":1_3_0" index="0" speed="7.97" length="5.93" shape="592.75,-701.60 596.62,-701.05 598.35,-700.00"/>
    </edge>
    <edge id=":1_6" function="internal">
        <lane id=":1_6_0" index="0" speed="7.97" length="8.32" shape="598.35,-700.00 599.37,-699.38 600.99,-696.61 601.48,-692.72"/>
    </edge>
    <edge id=":1_4" function="internal">
        <lane id=":1_4_0" index="0" speed="6.47" length="9.03" shape="598.28,-692.77 597.97,-695.24 596.94,-696.99 595.20,-698.05 592.75,-698.40"/>
    </edge>
    <edge id=":1_5" function="internal">
        <lane id=":1_5_0" index="0" speed="8.06" length="14.21" shape="598.28,-692.77 598.89,-696.64 600.57,-699.39 603.32,-701.05 607.15,-701.60"/>
    </edge>
    <edge id=":10_0" function="internal">
        <lane id=":10_0_0" index="0" speed="12.49" length="14.29" shape="1105.51,-458.52 1102.63,-456.16 1100.05,-453.67 1098.09,-450.84 1097.09,-447.45"/>
    </edge>
    <edge id=":10_1" function="internal">
        <lane id=":10_1_0" index="0" speed="7.38" length="18.30" shape="1105.51,-458.52 1100.67,-455.47 1097.25,-455.33 1095.24,-458.11 1094.64,-463.80"/>
    </edge>
    <edge id=":10_2" function="internal">
        <lane id=":10_2_0" index="0" speed="5.52" length="9.51" shape="1097.84,-463.75 1098.15,-460.79 1099.20,-459.35 1100.98,-459.42 1103.49,-461.01"/>
    </edge>
    <edge id=":10_3" function="internal">
        <lane id=":10_3_0" index="0" speed="13.89" length="16.32" shape="1097.84,-463.75 1097.77,-459.79 1097.64,-455.59 1097.42,-451.39 1097.09,-447.45"/>
    </edge>
    <edge id=":10_4" function="internal">
        <lane id=":10_4_0" index="0" speed="13.89" length="16.02" shape="1093.91,-447.80 1094.24,-451.69 1094.45,-455.79 1094.57,-459.89 1094.64,-463.80"/>
    </edge>
    <edge id=":10_5" function="internal">
        <lane id=":10_5_0" index="0" speed="13.45" length="5.35" shape="1093.91,-447.80 1095.09,-451.51 1095.89,-452.73"/>
    </edge>
    <edge id=":10_6" function="internal">
        <lane id=":10_6_0" index="0" speed="13.45" length="11.30" shape="1095.89,-452.73 1097.45,-455.08 1100.43,-458.31 1103.49,-461.01"/>
    </edge>
    <edge id=":11_0" function="internal">
        <lane id=":11_0_0" index="0" speed="6.08" length="7.74" shape="203.20,401.60 201.10,401.30 199.60,400.40 198.70,398.90 198.40,396.80"/>
    </edge>
    <edge id=":11_1" function="internal">
        <lane id=":11_1_0" index="0" speed="3.90" length="2.58" shape="201.60,396.80 201.70,397.50 202.00,398.00 202.50,398.30 203.20,398.40"/>
    </edge>
    <edge id=":12_0" function="internal">
        <lane id=":12_0_0" index="0" speed="8.03" length="13.74" shape="517.36,51.77 514.35,48.00 511.53,45.72 508.90,44.93 506.46,45.63"/>
    </edge>
    <edge id=":12_1" function="internal">
        <lane id=":12_1_0" index="0" speed="13.89" length="19.26" shape="517.36,51.77 515.01,47.99 512.59,43.32 510.67,38.49 509.82,34.22"/>
    </edge>
    <edge id=":12_2" function="internal">
        <lane id=":12_2_0" index="0" speed="7.48" length="9.08" shape="517.36,51.77 514.23,46.00 514.29,43.49"/>
    </edge>
    <edge id=":12_12" function="internal">
        <lane id=":12_12_0" index="0" speed="7.48" length="11.13" shape="514.29,43.49 514.32,42.46 517.61,41.15 524.11,42.08"/>
    </edge>
    <edge id=":12_3" function="internal">
        <lane id=":12_3_0" index="0" speed="5.46" length="9.96" shape="523.32,45.18 520.12,44.73 518.50,45.37 518.46,47.11 520.00,49.96"/>
    </edge>
    <edge id=":12_4" function="internal">
        <lane id=":12_4_0" index="0" speed="13.48" length="17.26" shape="523.32,45.18 517.98,44.13 513.39,43.85 509.54,44.35 506.46,45.63"/>
    </edge>
    <edge id=":12_5" function="internal">
        <lane id=":12_5_0" index="0" speed="10.18" length="18.61" shape="523.32,45.18 517.50,43.24 513.32,40.77 510.76,37.76 509.82,34.22"/>
    </edge>
    <edge id=":12_6" function="internal">
        <lane id=":12_6_0" index="0" speed="9.04" length="14.49" shape="513.02,34.12 513.78,36.57 515.87,38.71 519.32,40.55 524.11,42.08"/>
    </edge>
    <edge id=":12_7" function="internal">
        <lane id=":12_7_0" index="0" speed="13.89" length="17.48" shape="513.02,34.12 513.78,38.12 515.51,42.37 517.74,46.45 520.00,49.96"/>
    </edge>
    <edge id=":12_8" function="internal">
        <lane id=":12_8_0" index="0" speed="10.07" length="4.39" shape="513.02,34.12 512.70,37.59 512.37,38.43"/>
    </edge>
    <edge id=":12_13" function="internal">
        <lane id=":12_13_0" index="0" speed="10.07" length="9.53" shape="512.37,38.43 511.49,40.67 509.41,43.34 506.46,45.63"/>
    </edge>
    <edge id=":12_9" function="internal">
        <lane id=":12_9_0" index="0" speed="8.82" length="10.54" shape="504.78,42.90 507.05,41.16 508.65,39.13 509.57,36.82 509.82,34.22"/>
    </edge>
    <edge id=":12_10" function="internal">
        <lane id=":12_10_0" index="0" speed="13.89" length="19.81" shape="504.78,42.90 508.46,41.33 512.90,40.68 518.12,40.93 524.11,42.08"/>
    </edge>
    <edge id=":12_11" function="internal">
        <lane id=":12_11_0" index="0" speed="9.27" length="18.64" shape="504.78,42.90 508.47,41.66 512.23,42.43 516.08,45.19 520.00,49.96"/>
    </edge>
    <edge id=":13_0" function="internal">
        <lane id=":13_0_0" index="0" speed="9.33" length="18.12" shape="1407.16,-690.58 1403.42,-693.30 1399.46,-694.21 1395.30,-693.29 1390.92,-690.55"/>
    </edge>
    <edge id=":13_1" function="internal">
        <lane id=":13_1_0" index="0" speed="13.89" length="21.90" shape="1407.16,-690.58 1403.22,-693.29 1397.62,-695.81 1391.75,-697.67 1386.99,-698.40"/>
    </edge>
    <edge id=":13_2" function="internal">
        <lane id=":13_2_0" index="0" speed="7.42" length="19.31" shape="1407.16,-690.58 1403.31,-695.40 1402.79,-698.84 1405.59,-700.91 1411.73,-701.60"/>
    </edge>
    <edge id=":13_3" function="internal">
        <lane id=":13_3_0" index="0" speed="5.47" length="9.74" shape="1411.73,-698.40 1408.63,-698.05 1407.22,-697.01 1407.48,-695.27 1409.42,-692.84"/>
    </edge>
    <edge id=":13_4" function="internal">
        <lane id=":13_4_0" index="0" speed="13.89" length="22.44" shape="1411.73,-698.40 1406.91,-697.62 1400.90,-695.66 1395.10,-693.11 1390.92,-690.55"/>
    </edge>
    <edge id=":13_5" function="internal">
        <lane id=":13_5_0" index="0" speed="13.89" length="24.73" shape="1411.73,-698.40 1386.99,-698.40"/>
    </edge>
    <edge id=":13_6" function="internal">
        <lane id=":13_6_0" index="0" speed="13.89" length="24.73" shape="1386.99,-701.60 1411.73,-701.60"/>
    </edge>
    <edge id=":13_7" function="internal">
        <lane id=":13_7_0" index="0" speed="13.89" length="10.49" shape="1386.99,-701.60 1393.52,-701.05 1397.31,-700.00"/>
    </edge>
    <edge id=":13_8" function="internal">
        <lane id=":13_8_0" index="0" speed="7.53" length="8.42" shape="1386.99,-701.60 1393.80,-700.91 1395.09,-700.00"/>
    </edge>
    <edge id=":13_12" function="internal">
        <lane id=":13_12_0" index="0" speed="13.89" length="14.23" shape="1397.31,-700.00 1399.43,-699.41 1404.74,-696.67 1409.42,-692.84"/>
    </edge>
    <edge id=":13_13" function="internal">
        <lane id=":13_13_0" index="0" speed="7.53" length="12.44" shape="1395.09,-700.00 1396.73,-698.84 1395.77,-695.39 1390.92,-690.55"/>
    </edge>
    <edge id=":13_9" function="internal">
        <lane id=":13_9_0" index="0" speed="5.46" length="10.13" shape="1388.90,-693.04 1391.25,-695.38 1391.72,-697.06 1390.30,-698.06 1386.99,-698.40"/>
    </edge>
    <edge id=":13_10" function="internal">
        <lane id=":13_10_0" index="0" speed="13.89" length="24.57" shape="1388.90,-693.04 1393.40,-695.70 1399.89,-698.50 1406.59,-700.71 1411.73,-701.60"/>
    </edge>
    <edge id=":13_11" function="internal">
        <lane id=":13_11_0" index="0" speed="10.43" length="22.90" shape="1388.90,-693.04 1394.38,-696.44 1399.64,-697.54 1404.65,-696.34 1409.42,-692.84"/>
    </edge>
    <edge id=":14_0" function="internal">
        <lane id=":14_0_0" index="0" speed="13.89" length="20.50" shape="412.78,401.60 392.28,401.60"/>
    </edge>
    <edge id=":14_1" function="internal">
        <lane id=":14_1_0" index="0" speed="10.25" length="8.63" shape="412.78,401.60 406.48,400.91 404.38,400.00"/>
    </edge>
    <edge id=":14_2" function="internal">
        <lane id=":14_2_0" index="0" speed="7.50" length="8.29" shape="412.78,401.60 406.09,400.91 404.82,400.00"/>
    </edge>
    <edge id=":14_12" function="internal">
        <lane id=":14_12_0" index="0" speed="10.25" length="12.60" shape="404.38,400.00 401.75,398.86 398.58,395.43 396.98,390.63"/>
    </edge>
    <edge id=":14_13" function="internal">
        <lane id=":14_13_0" index="0" speed="7.50" length="12.29" shape="404.82,400.00 403.19,398.84 404.08,395.39 408.76,390.55"/>
    </edge>
    <edge id=":14_3" function="internal">
        <lane id=":14_3_0" index="0" speed="5.46" length="10.06" shape="410.81,393.00 408.53,395.36 408.09,397.05 409.51,398.06 412.78,398.40"/>
    </edge>
    <edge id=":14_4" function="internal">
        <lane id=":14_4_0" index="0" speed="13.89" length="20.65" shape="410.81,393.00 407.01,395.70 401.99,398.51 396.75,400.71 392.28,401.60"/>
    </edge>
    <edge id=":14_5" function="internal">
        <lane id=":14_5_0" index="0" speed="7.82" length="19.16" shape="410.81,393.00 405.46,396.63 401.37,397.44 398.54,395.44 396.98,390.63"/>
    </edge>
    <edge id=":14_6" function="internal">
        <lane id=":14_6_0" index="0" speed="6.20" length="11.50" shape="400.14,390.15 401.06,392.72 402.80,393.64 405.37,392.92 408.76,390.55"/>
    </edge>
    <edge id=":14_7" function="internal">
        <lane id=":14_7_0" index="0" speed="9.12" length="16.62" shape="400.14,390.15 401.39,393.76 403.92,396.34 407.72,397.88 412.78,398.40"/>
    </edge>
    <edge id=":14_8" function="internal">
        <lane id=":14_8_0" index="0" speed="8.13" length="16.37" shape="400.14,390.15 400.29,395.16 399.04,398.74 396.37,400.88 392.28,401.60"/>
    </edge>
    <edge id=":14_9" function="internal">
        <lane id=":14_9_0" index="0" speed="6.68" length="10.65" shape="392.28,398.40 394.77,397.91 396.39,396.46 397.12,394.03 396.98,390.63"/>
    </edge>
    <edge id=":14_10" function="internal">
        <lane id=":14_10_0" index="0" speed="13.89" length="18.49" shape="392.28,398.40 396.43,397.63 400.96,395.68 405.27,393.14 408.76,390.55"/>
    </edge>
    <edge id=":14_11" function="internal">
        <lane id=":14_11_0" index="0" speed="13.89" length="20.50" shape="392.28,398.40 412.78,398.40"/>
    </edge>
    <edge id=":15_0" function="internal">
        <lane id=":15_0_0" index="0" speed="5.46" length="10.34" shape="1218.31,136.30 1216.11,133.67 1214.49,133.04 1213.44,134.43 1212.96,137.83"/>
    </edge>
    <edge id=":15_1" function="internal">
        <lane id=":15_1_0" index="0" speed="11.88" length="18.62" shape="1218.31,136.30 1214.70,131.71 1211.05,128.48 1207.36,126.59 1203.64,126.06"/>
    </edge>
    <edge id=":15_2" function="internal">
        <lane id=":15_2_0" index="0" speed="13.89" length="22.28" shape="1218.31,136.30 1215.68,132.18 1212.53,126.77 1209.59,121.25 1207.59,116.81"/>
    </edge>
    <edge id=":15_3" function="internal">
        <lane id=":15_3_0" index="0" speed="7.63" length="20.55" shape="1218.31,136.30 1214.95,130.16 1214.75,126.20 1217.71,124.42 1223.83,124.83"/>
    </edge>
    <edge id=":15_4" function="internal">
        <lane id=":15_4_0" index="0" speed="5.75" length="10.96" shape="1223.22,127.97 1220.17,127.81 1218.77,128.85 1219.03,131.08 1220.95,134.50"/>
    </edge>
    <edge id=":15_5" function="internal">
        <lane id=":15_5_0" index="0" speed="8.23" length="16.79" shape="1223.22,127.97 1218.92,127.87 1215.78,129.48 1213.79,132.80 1212.96,137.83"/>
    </edge>
    <edge id=":15_6" function="internal">
        <lane id=":15_6_0" index="0" speed="13.89" length="19.70" shape="1223.22,127.97 1218.79,127.24 1213.46,126.59 1208.12,126.14 1203.64,126.06"/>
    </edge>
    <edge id=":15_7" function="internal">
        <lane id=":15_7_0" index="0" speed="12.17" length="8.25" shape="1223.22,127.97 1217.57,126.36 1215.47,125.24"/>
    </edge>
    <edge id=":15_20" function="internal">
        <lane id=":15_20_0" index="0" speed="12.17" length="11.84" shape="1215.47,125.24 1213.08,123.96 1209.75,120.78 1207.59,116.81"/>
    </edge>
    <edge id=":15_8" function="internal">
        <lane id=":15_8_0" index="0" speed="11.16" length="16.79" shape="1210.60,115.72 1212.38,118.92 1215.18,121.51 1219.00,123.48 1223.83,124.83"/>
    </edge>
    <edge id=":15_9" function="internal">
        <lane id=":15_9_0" index="0" speed="13.89" length="21.48" shape="1210.60,115.72 1212.54,120.05 1215.36,125.32 1218.38,130.48 1220.95,134.50"/>
    </edge>
    <edge id=":15_10" function="internal">
        <lane id=":15_10_0" index="0" speed="13.89" length="22.30" shape="1210.60,115.72 1211.72,120.45 1212.50,126.66 1212.92,132.93 1212.96,137.83"/>
    </edge>
    <edge id=":15_11" function="internal">
        <lane id=":15_11_0" index="0" speed="7.56" length="15.53" shape="1210.60,115.72 1211.52,120.09 1210.66,123.27 1208.03,125.26 1203.64,126.06"/>
    </edge>
    <edge id=":15_12" function="internal">
        <lane id=":15_12_0" index="0" speed="5.94" length="9.09" shape="1203.52,122.86 1206.09,122.40 1207.63,121.23 1208.13,119.37 1207.59,116.81"/>
    </edge>
    <edge id=":15_13" function="internal">
        <lane id=":15_13_0" index="0" speed="13.89" length="20.43" shape="1203.52,122.86 1208.11,122.96 1213.71,123.42 1219.29,124.09 1223.83,124.83"/>
    </edge>
    <edge id=":15_14" function="internal">
        <lane id=":15_14_0" index="0" speed="12.84" length="7.59" shape="1203.52,122.86 1208.08,123.46 1210.77,124.76"/>
    </edge>
    <edge id=":15_15" function="internal">
        <lane id=":15_15_0" index="0" speed="9.20" length="5.87" shape="1203.52,122.86 1207.90,123.65 1208.95,124.61"/>
    </edge>
    <edge id=":15_21" function="internal">
        <lane id=":15_21_0" index="0" speed="12.84" length="14.25" shape="1210.77,124.76 1212.50,125.59 1216.79,129.28 1220.95,134.50"/>
    </edge>
    <edge id=":15_22" function="internal">
        <lane id=":15_22_0" index="0" speed="9.20" length="14.40" shape="1208.95,124.61 1210.93,126.41 1212.62,131.13 1212.96,137.83"/>
    </edge>
    <edge id=":15_16" function="internal">
        <lane id=":15_16_0" index="0" speed="7.95" length="14.87" shape="1209.76,137.69 1209.57,132.51 1208.49,128.84 1206.51,126.69 1203.64,126.06"/>
    </edge>
    <edge id=":15_17" function="internal">
        <lane id=":15_17_0" index="0" speed="13.89" length="21.07" shape="1209.76,137.69 1209.75,132.98 1209.40,127.14 1208.68,121.35 1207.59,116.81"/>
    </edge>
    <edge id=":15_18" function="internal">
        <lane id=":15_18_0" index="0" speed="9.45" length="22.52" shape="1209.76,137.69 1210.89,131.08 1213.61,126.74 1217.93,124.65 1223.83,124.83"/>
    </edge>
    <edge id=":15_19" function="internal">
        <lane id=":15_19_0" index="0" speed="7.59" length="21.64" shape="1209.76,137.69 1210.76,130.58 1212.96,127.68 1216.35,128.98 1220.95,134.50"/>
    </edge>
    <edge id=":16_0" function="internal">
        <lane id=":16_0_0" index="0" speed="3.90" length="2.58" shape="1598.40,-696.80 1598.30,-697.50 1598.00,-698.00 1597.50,-698.30 1596.80,-698.40"/>
    </edge>
    <edge id=":16_1" function="internal">
        <lane id=":16_1_0" index="0" speed="6.08" length="7.74" shape="1596.80,-701.60 1598.90,-701.30 1600.40,-700.40 1601.30,-698.90 1601.60,-696.80"/>
    </edge>
    <edge id=":17_0" function="internal">
        <lane id=":17_0_0" index="0" speed="5.90" length="9.10" shape="628.75,217.56 627.48,215.26 625.89,214.19 623.97,214.35 621.74,215.74"/>
    </edge>
    <edge id=":17_1" function="internal">
        <lane id=":17_1_0" index="0" speed="13.89" length="14.95" shape="628.75,217.56 627.34,214.09 625.77,210.71 623.99,207.42 622.00,204.26"/>
    </edge>
    <edge id=":17_2" function="internal">
        <lane id=":17_2_0" index="0" speed="13.89" length="15.71" shape="624.63,202.45 626.69,205.72 628.58,209.23 630.28,212.85 631.74,216.42"/>
    </edge>
    <edge id=":17_3" function="internal">
        <lane id=":17_3_0" index="0" speed="8.56" length="6.15" shape="624.63,202.45 626.23,205.87 626.26,208.25"/>
    </edge>
    <edge id=":17_6" function="internal">
        <lane id=":17_6_0" index="0" speed="8.56" length="9.02" shape="626.26,208.25 626.27,209.22 624.78,212.51 621.74,215.74"/>
    </edge>
    <edge id=":17_4" function="internal">
        <lane id=":17_4_0" index="0" speed="7.18" length="10.38" shape="619.68,213.29 621.85,211.03 622.96,208.77 623.01,206.51 622.00,204.26"/>
    </edge>
    <edge id=":17_5" function="internal">
        <lane id=":17_5_0" index="0" speed="7.54" length="15.66" shape="619.68,213.29 623.52,210.90 626.81,210.62 629.55,212.46 631.74,216.42"/>
    </edge>
    <edge id=":18_0" function="internal">
        <lane id=":18_0_0" index="0" speed="13.89" length="14.41" shape="1207.34,401.60 1192.94,401.60"/>
    </edge>
    <edge id=":18_1" function="internal">
        <lane id=":18_1_0" index="0" speed="7.92" length="5.94" shape="1207.34,401.60 1203.42,401.04 1201.74,400.00"/>
    </edge>
    <edge id=":18_6" function="internal">
        <lane id=":18_6_0" index="0" speed="7.92" length="8.42" shape="1201.74,400.00 1200.68,399.35 1199.11,396.54 1198.72,392.60"/>
    </edge>
    <edge id=":18_2" function="internal">
        <lane id=":18_2_0" index="0" speed="6.41" length="9.04" shape="1201.92,392.73 1202.16,395.21 1203.15,396.98 1204.88,398.05 1207.34,398.40"/>
    </edge>
    <edge id=":18_3" function="internal">
        <lane id=":18_3_0" index="0" speed="8.15" length="14.26" shape="1201.92,392.73 1201.21,396.61 1199.48,399.38 1196.72,401.05 1192.94,401.60"/>
    </edge>
    <edge id=":18_4" function="internal">
        <lane id=":18_4_0" index="0" speed="6.68" length="9.26" shape="1192.94,398.40 1195.37,398.04 1197.15,396.95 1198.26,395.14 1198.72,392.60"/>
    </edge>
    <edge id=":18_5" function="internal">
        <lane id=":18_5_0" index="0" speed="13.89" length="14.41" shape="1192.94,398.40 1207.34,398.40"/>
    </edge>
    <edge id=":19_0" function="internal">
        <lane id=":19_0_0" index="0" speed="5.46" length="10.34" shape="1598.40,-486.36 1598.07,-489.78 1597.08,-491.21 1595.43,-490.65 1593.13,-488.11"/>
    </edge>
    <edge id=":19_1" function="internal">
        <lane id=":19_1_0" index="0" speed="13.89" length="22.80" shape="1598.40,-486.36 1597.91,-492.53 1596.44,-498.05 1594.00,-502.93 1590.58,-507.16"/>
    </edge>
    <edge id=":19_2" function="internal">
        <lane id=":19_2_0" index="0" speed="13.89" length="25.37" shape="1598.40,-486.36 1598.40,-511.73"/>
    </edge>
    <edge id=":19_3" function="internal">
        <lane id=":19_3_0" index="0" speed="13.89" length="25.37" shape="1601.60,-511.73 1601.60,-486.36"/>
    </edge>
    <edge id=":19_4" function="internal">
        <lane id=":19_4_0" index="0" speed="13.89" length="7.61" shape="1601.60,-511.73 1600.70,-506.49 1600.00,-504.30"/>
    </edge>
    <edge id=":19_5" function="internal">
        <lane id=":19_5_0" index="0" speed="7.42" length="7.71" shape="1601.60,-511.73 1600.91,-505.59 1600.00,-504.36"/>
    </edge>
    <edge id=":19_12" function="internal">
        <lane id=":19_12_0" index="0" speed="13.89" length="17.64" shape="1600.00,-504.30 1598.48,-499.55 1595.71,-492.79 1593.13,-488.11"/>
    </edge>
    <edge id=":19_13" function="internal">
        <lane id=":19_13_0" index="0" speed="7.42" length="11.60" shape="1600.00,-504.36 1598.84,-502.79 1595.40,-503.31 1590.58,-507.16"/>
    </edge>
    <edge id=":19_6" function="internal">
        <lane id=":19_6_0" index="0" speed="5.47" length="9.74" shape="1592.84,-509.42 1595.27,-507.48 1597.01,-507.22 1598.05,-508.63 1598.40,-511.73"/>
    </edge>
    <edge id=":19_7" function="internal">
        <lane id=":19_7_0" index="0" speed="13.89" length="24.91" shape="1592.84,-509.42 1595.70,-505.03 1598.55,-498.44 1600.73,-491.58 1601.60,-486.36"/>
    </edge>
    <edge id=":19_8" function="internal">
        <lane id=":19_8_0" index="0" speed="10.76" length="23.58" shape="1592.84,-509.42 1596.33,-504.61 1597.55,-499.46 1596.48,-493.96 1593.13,-488.11"/>
    </edge>
    <edge id=":19_9" function="internal">
        <lane id=":19_9_0" index="0" speed="9.69" length="18.95" shape="1590.56,-490.02 1593.31,-494.78 1594.23,-499.22 1593.32,-503.35 1590.58,-507.16"/>
    </edge>
    <edge id=":19_10" function="internal">
        <lane id=":19_10_0" index="0" speed="13.89" length="23.25" shape="1590.56,-490.02 1593.05,-494.40 1595.60,-500.50 1597.60,-506.79 1598.40,-511.73"/>
    </edge>
    <edge id=":19_11" function="internal">
        <lane id=":19_11_0" index="0" speed="7.59" length="21.65" shape="1590.56,-490.02 1595.39,-495.34 1598.84,-496.51 1600.91,-493.51 1601.60,-486.36"/>
    </edge>
    <edge id=":2_0" function="internal">
        <lane id=":2_0_0" index="0" speed="13.89" length="14.64" shape="198.40,-93.56 198.40,-108.20"/>
    </edge>
    <edge id=":2_1" function="internal">
        <lane id=":2_1_0" index="0" speed="9.08" length="5.57" shape="198.40,-93.56 198.97,-97.07 200.00,-98.80"/>
    </edge>
    <edge id=":2_6" function="internal">
        <lane id=":2_6_0" index="0" speed="9.08" length="9.19" shape="200.00,-98.80 200.67,-99.93 203.51,-102.15 207.48,-103.72"/>
    </edge>
    <edge id=":2_2" function="internal">
        <lane id=":2_2_0" index="0" speed="7.76" length="10.56" shape="208.33,-100.64 205.39,-99.50 203.28,-97.94 202.02,-95.96 201.60,-93.56"/>
    </edge>
    <edge id=":2_3" function="internal">
        <lane id=":2_3_0" index="0" speed="7.60" length="15.33" shape="208.33,-100.64 203.99,-100.08 200.88,-101.16 199.02,-103.87 198.40,-108.20"/>
    </edge>
    <edge id=":2_4" function="internal">
        <lane id=":2_4_0" index="0" speed="6.00" length="9.08" shape="201.60,-108.20 201.97,-105.63 203.07,-104.03 204.91,-103.40 207.48,-103.72"/>
    </edge>
    <edge id=":2_5" function="internal">
        <lane id=":2_5_0" index="0" speed="13.89" length="14.64" shape="201.60,-108.20 201.60,-93.56"/>
    </edge>
    <edge id=":20_0" function="internal">
        <lane id=":20_0_0" index="0" speed="13.89" length="14.85" shape="706.20,401.60 691.36,401.60"/>
    </edge>
    <edge id=":20_1" function="internal">
        <lane id=":20_1_0" index="0" speed="9.60" length="5.51" shape="706.20,401.60 702.79,401.03 701.02,400.00"/>
    </edge>
    <edge id=":20_6" function="internal">
        <lane id=":20_6_0" index="0" speed="9.60" length="9.55" shape="701.02,400.00 699.86,399.32 697.40,396.48 695.43,392.49"/>
    </edge>
    <edge id=":20_2" function="internal">
        <lane id=":20_2_0" index="0" speed="8.34" length="11.19" shape="698.42,391.35 699.91,394.44 701.71,396.64 703.80,397.96 706.20,398.40"/>
    </edge>
    <edge id=":20_3" function="internal">
        <lane id=":20_3_0" index="0" speed="7.51" length="15.82" shape="698.42,391.35 699.44,395.84 698.60,399.04 695.91,400.96 691.36,401.60"/>
    </edge>
    <edge id=":20_4" function="internal">
        <lane id=":20_4_0" index="0" speed="5.86" length="9.12" shape="691.36,398.40 693.98,398.03 695.53,396.92 696.02,395.08 695.43,392.49"/>
    </edge>
    <edge id=":20_5" function="internal">
        <lane id=":20_5_0" index="0" speed="13.89" length="14.85" shape="691.36,398.40 706.20,398.40"/>
    </edge>
    <edge id=":21_0" function="internal">
        <lane id=":21_0_0" index="0" speed="13.89" length="15.75" shape="1405.69,401.60 1389.95,401.60"/>
    </edge>
    <edge id=":21_1" function="internal">
        <lane id=":21_1_0" index="0" speed="11.37" length="5.51" shape="1405.69,401.60 1402.45,401.04 1400.49,400.00"/>
    </edge>
    <edge id=":21_6" function="internal">
        <lane id=":21_6_0" index="0" speed="11.37" length="10.62" shape="1400.49,400.00 1399.25,399.35 1396.11,396.53 1393.01,392.59"/>
    </edge>
    <edge id=":21_2" function="internal">
        <lane id=":21_2_0" index="0" speed="10.26" length="13.04" shape="1395.66,390.79 1398.23,394.12 1400.76,396.50 1403.25,397.92 1405.69,398.40"/>
    </edge>
    <edge id=":21_3" function="internal">
        <lane id=":21_3_0" index="0" speed="7.38" length="17.37" shape="1395.66,390.79 1398.06,395.52 1397.91,398.90 1395.21,400.92 1389.95,401.60"/>
    </edge>
    <edge id=":21_4" function="internal">
        <lane id=":21_4_0" index="0" speed="5.60" length="9.33" shape="1389.95,398.40 1392.77,398.04 1394.23,396.95 1394.31,395.13 1393.01,392.59"/>
    </edge>
    <edge id=":21_5" function="internal">
        <lane id=":21_5_0" index="0" speed="13.89" length="15.75" shape="1389.95,398.40 1405.69,398.40"/>
    </edge>
    <edge id=":22_0" function="internal">
        <lane id=":22_0_0" index="0" speed="6.13" length="9.06" shape="1598.40,-292.11 1598.04,-294.64 1596.94,-296.29 1595.12,-297.04 1592.57,-296.92"/>
    </edge>
    <edge id=":22_1" function="internal">
        <lane id=":22_1_0" index="0" speed="13.89" length="14.52" shape="1598.40,-292.11 1598.40,-306.64"/>
    </edge>
    <edge id=":22_2" function="internal">
        <lane id=":22_2_0" index="0" speed="13.89" length="14.52" shape="1601.60,-306.64 1601.60,-292.11"/>
    </edge>
    <edge id=":22_3" function="internal">
        <lane id=":22_3_0" index="0" speed="8.73" length="5.64" shape="1601.60,-306.64 1601.04,-303.05 1600.00,-301.32"/>
    </edge>
    <edge id=":22_6" function="internal">
        <lane id=":22_6_0" index="0" speed="8.73" length="8.91" shape="1600.00,-301.32 1599.34,-300.23 1596.52,-298.19 1592.57,-296.92"/>
    </edge>
    <edge id=":22_4" function="internal">
        <lane id=":22_4_0" index="0" speed="7.36" length="10.09" shape="1591.95,-300.06 1594.77,-300.94 1596.79,-302.33 1598.00,-304.23 1598.40,-306.64"/>
    </edge>
    <edge id=":22_5" function="internal">
        <lane id=":22_5_0" index="0" speed="7.70" length="14.98" shape="1591.95,-300.06 1596.17,-300.27 1599.19,-299.01 1601.00,-296.30 1601.60,-292.11"/>
    </edge>
    <edge id=":23_0" function="internal">
        <lane id=":23_0_0" index="0" speed="13.89" length="14.40" shape="907.10,401.60 892.70,401.60"/>
    </edge>
    <edge id=":23_1" function="internal">
        <lane id=":23_1_0" index="0" speed="8.11" length="5.87" shape="907.10,401.60 903.30,401.05 901.56,400.00"/>
    </edge>
    <edge id=":23_6" function="internal">