<?xml version="1.0" encoding="UTF-8"?>

<!-- generated on Tuesday 09 February 2021 08:15:00 PM IST by Eclipse SUMO netedit Version 1.8.0
<configuration xmlns:xsi="http://www.w3.org/2001/XMLSchema-instance" xsi:noNamespaceSchemaLocation="http://sumo.dlr.de/xsd/netconvertConfiguration.xsd">

    <input>
        <sumo-net-file value="/home/dikshant/github/pat_code/maps/asymmetric/complex_final.net.xml"/>
    </input>

    <output>
        <output-file value="/home/dikshant/github/pat_code/maps/asymmetric/complex_final.net.xml"/>
    </output>

    <processing>
        <geometry.min-radius.fix.railways value="false"/>
        <geometry.max-grade.fix value="false"/>
        <offset.disable-normalization value="true"/>
        <lefthand value="false"/>
    </processing>

    <junctions>
        <no-turnarounds value="true"/>
        <junctions.corner-detail value="5"/>
        <junctions.limit-turn-speed value="5.5"/>
        <rectangular-lane-cut value="false"/>
    </junctions>

    <pedestrian>
        <walkingareas value="false"/>
    </pedestrian>

    <report>
        <aggregate-warnings value="5"/>
    </report>

</configuration>
-->

<net version="1.6" junctionCornerDetail="5" limitTurnSpeed="5.50" xmlns:xsi="http://www.w3.org/2001/XMLSchema-instance" xsi:noNamespaceSchemaLocation="http://sumo.dlr.de/xsd/net_file.xsd">

    <location netOffset="0.00,0.00" convBoundary="200.00,-700.00,1600.00,400.00" origBoundary="-10000000000.00,-10000000000.00,10000000000.00,10000000000.00" projParameter="!"/>

    <edge id=":0_0" function="internal">
        <lane id=":0_0_0" index="0" speed="13.13" length="39.97" shape="195.20,-683.01 196.93,-692.55 202.11,-699.35 210.75,-703.44 222.84,-704.80"/>
    </edge>
    <edge id=":0_1" function="internal">
        <lane id=":0_1_0" index="0" speed="12.28" length="34.82" shape="198.40,-683.01 199.93,-691.15 204.51,-696.95 212.15,-700.44 222.84,-701.60"/>
    </edge>
    <edge id=":0_2" function="internal">
        <lane id=":0_2_0" index="0" speed="9.01" length="8.12" shape="198.40,-683.01 200.32,-689.65 201.39,-690.22"/>
    </edge>
    <edge id=":0_8" function="internal">
        <lane id=":0_8_0" index="0" speed="9.01" length="19.31" shape="201.39,-690.22 205.25,-692.27 211.93,-691.35 219.09,-687.36"/>
    </edge>
    <edge id=":0_3" function="internal">
        <lane id=":0_3_0" index="0" speed="6.55" length="13.75" shape="215.19,-682.28 210.64,-685.32 207.40,-686.45 205.45,-685.69 204.80,-683.01"/>
    </edge>
    <edge id=":0_4" function="internal">
        <lane id=":0_4_0" index="0" speed="7.95" length="23.76" shape="217.14,-684.82 213.35,-689.97 213.37,-695.46 216.70,-699.82 222.84,-701.60"/>
    </edge>
    <edge id=":0_5" function="internal">
        <lane id=":0_5_0" index="0" speed="5.46" length="10.27" shape="222.84,-695.20 219.46,-694.87 218.03,-693.87 218.56,-692.22 221.04,-689.89"/>
    </edge>
    <edge id=":0_6" function="internal">
        <lane id=":0_6_0" index="0" speed="10.37" length="24.55" shape="222.84,-695.20 214.95,-694.44 209.31,-692.15 205.93,-688.35 204.80,-683.01"/>
    </edge>
    <edge id=":0_7" function="internal">
        <lane id=":0_7_0" index="0" speed="11.36" length="29.68" shape="222.84,-698.40 213.55,-697.44 206.91,-694.55 202.93,-689.75 201.60,-683.01"/>
    </edge>
    <edge id=":1_0" function="internal">
        <lane id=":1_0_0" index="0" speed="6.60" length="9.20" shape="610.30,-695.20 607.85,-694.84 606.09,-693.75 605.02,-691.95 604.63,-689.42"/>
    </edge>
    <edge id=":1_1" function="internal">
        <lane id=":1_1_0" index="0" speed="13.89" length="20.80" shape="610.30,-695.20 589.49,-695.20"/>
        <lane id=":1_1_1" index="1" speed="13.89" length="20.80" shape="610.30,-698.40 589.49,-698.40"/>
    </edge>
    <edge id=":1_3" function="internal">
        <lane id=":1_3_0" index="0" speed="13.89" length="20.80" shape="589.49,-704.80 610.30,-704.80"/>
        <lane id=":1_3_1" index="1" speed="13.89" length="20.80" shape="589.49,-701.60 610.30,-701.60"/>
    </edge>
    <edge id=":1_5" function="internal">
        <lane id=":1_5_0" index="0" speed="9.23" length="6.97" shape="589.49,-701.60 594.79,-700.84 596.18,-700.00"/>
    </edge>
    <edge id=":1_8" function="internal">
        <lane id=":1_8_0" index="0" speed="9.23" length="12.50" shape="596.18,-700.00 598.54,-698.57 600.76,-694.78 601.43,-689.47"/>
    </edge>
    <edge id=":1_6" function="internal">
        <lane id=":1_6_0" index="0" speed="6.47" length="9.03" shape="595.03,-689.57 594.72,-692.04 593.69,-693.79 591.95,-694.85 589.49,-695.20"/>
    </edge>
    <edge id=":1_7" function="internal">
        <lane id=":1_7_0" index="0" speed="9.32" length="19.40" shape="598.23,-689.52 599.06,-694.81 601.34,-698.58 605.09,-700.85 610.30,-701.60"/>
    </edge>
    <edge id=":10_0" function="internal">
        <lane id=":10_0_0" index="0" speed="13.89" length="20.32" shape="1112.86,-460.37 1107.85,-456.87 1104.07,-454.40 1101.50,-451.28 1100.13,-445.80"/>
    </edge>
    <edge id=":10_1" function="internal">
        <lane id=":10_1_0" index="0" speed="8.27" length="23.37" shape="1110.84,-462.85 1105.05,-460.03 1099.85,-460.68 1096.11,-464.37 1094.75,-470.66"/>
    </edge>
    <edge id=":10_2" function="internal">
        <lane id=":10_2_0" index="0" speed="5.52" length="9.51" shape="1101.15,-470.56 1101.46,-467.60 1102.50,-466.16 1104.28,-466.23 1106.80,-467.82"/>
    </edge>
    <edge id=":10_3" function="internal">
        <lane id=":10_3_0" index="0" speed="13.89" length="24.65" shape="1101.15,-470.56 1101.08,-463.87 1100.98,-458.16 1100.72,-452.46 1100.13,-445.80"/>
        <lane id=":10_3_1" index="1" speed="13.89" length="24.65" shape="1097.95,-470.61 1097.88,-463.97 1097.79,-458.36 1097.54,-452.76 1096.95,-446.14"/>
    </edge>
    <edge id=":10_5" function="internal">
        <lane id=":10_5_0" index="0" speed="13.89" length="24.06" shape="1090.58,-446.83 1091.17,-453.35 1091.41,-458.75 1091.49,-464.16 1091.55,-470.72"/>
        <lane id=":10_5_1" index="1" speed="13.89" length="24.06" shape="1093.77,-446.49 1094.35,-453.05 1094.60,-458.56 1094.68,-464.07 1094.75,-470.66"/>
    </edge>
    <edge id=":10_7" function="internal">
        <lane id=":10_7_0" index="0" speed="13.89" length="7.30" shape="1093.77,-446.49 1095.48,-452.74 1095.96,-453.40"/>
    </edge>
    <edge id=":10_8" function="internal">
        <lane id=":10_8_0" index="0" speed="13.89" length="17.67" shape="1095.96,-453.40 1098.79,-457.28 1103.34,-461.13 1108.82,-465.34"/>
    </edge>
    <edge id=":11_0" function="internal">
        <lane id=":11_0_0" index="0" speed="8.96" length="18.06" shape="206.40,404.80 201.50,404.10 198.00,402.00 195.90,398.50 195.20,393.60"/>
    </edge>
    <edge id=":11_1" function="internal">
        <lane id=":11_1_0" index="0" speed="7.66" length="12.90" shape="206.40,401.60 202.90,401.10 200.40,399.60 198.90,397.10 198.40,393.60"/>
    </edge>
    <edge id=":11_2" function="internal">
        <lane id=":11_2_0" index="0" speed="3.90" length="2.58" shape="204.80,393.60 204.90,394.30 205.20,394.80 205.70,395.10 206.40,395.20"/>
    </edge>
    <edge id=":11_3" function="internal">
        <lane id=":11_3_0" index="0" speed="6.08" length="7.74" shape="201.60,393.60 201.90,395.70 202.80,397.20 204.30,398.10 206.40,398.40"/>
    </edge>
    <edge id=":12_0" function="internal">
        <lane id=":12_0_0" index="0" speed="9.29" length="18.74" shape="519.51,60.57 515.16,54.84 511.38,51.16 508.18,49.53 505.54,49.94"/>
    </edge>
    <edge id=":12_1" function="internal">
        <lane id=":12_1_0" index="0" speed="13.89" length="30.96" shape="519.51,60.57 515.14,54.02 511.03,46.89 507.91,39.44 506.55,31.90"/>
        <lane id=":12_1_1" index="1" speed="13.89" length="30.96" shape="522.15,58.76 517.87,52.47 513.94,45.94 511.02,39.07 509.75,31.80"/>
    </edge>
    <edge id=":12_3" function="internal">
        <lane id=":12_3_0" index="0" speed="8.05" length="5.95" shape="522.15,58.76 520.19,53.15"/>
    </edge>
    <edge id=":12_16" function="internal">
        <lane id=":12_16_0" index="0" speed="8.05" length="17.73" shape="520.19,53.15 520.03,52.70 521.55,47.49 525.90,44.27 532.32,44.16"/>
    </edge>
    <edge id=":12_4" function="internal">
        <lane id=":12_4_0" index="0" speed="5.46" length="9.96" shape="530.76,50.36 527.55,49.90 525.93,50.55 525.89,52.29 527.43,55.14"/>
    </edge>
    <edge id=":12_5" function="internal">
        <lane id=":12_5_0" index="0" speed="13.89" length="25.73" shape="530.76,50.36 522.30,48.60 515.28,47.94 509.69,48.39 505.54,49.94"/>
    </edge>
    <edge id=":12_6" function="internal">
        <lane id=":12_6_0" index="0" speed="13.89" length="28.27" shape="531.54,47.26 522.44,45.39 514.79,44.77 508.60,45.37 503.86,47.22"/>
    </edge>
    <edge id=":12_7" function="internal">
        <lane id=":12_7_0" index="0" speed="12.47" length="28.35" shape="531.54,47.26 522.12,44.26 515.35,40.68 511.23,36.53 509.75,31.80"/>
    </edge>
    <edge id=":12_8" function="internal">
        <lane id=":12_8_0" index="0" speed="10.60" length="20.23" shape="516.15,31.61 517.27,34.15 520.47,36.57 525.75,38.87 533.11,41.05"/>
    </edge>
    <edge id=":12_9" function="internal">
        <lane id=":12_9_0" index="0" speed="13.89" length="27.42" shape="516.15,31.61 517.24,38.34 519.78,44.03 523.32,49.39 527.43,55.14"/>
        <lane id=":12_9_1" index="1" speed="13.89" length="27.42" shape="512.95,31.71 514.13,38.71 516.86,44.98 520.60,50.93 524.79,56.95"/>
    </edge>
    <edge id=":12_11" function="internal">
        <lane id=":12_11_0" index="0" speed="11.66" length="5.26" shape="512.95,31.71 512.49,36.33 512.27,36.90"/>
    </edge>
    <edge id=":12_17" function="internal">
        <lane id=":12_17_0" index="0" speed="11.66" length="13.62" shape="512.27,36.90 510.83,40.46 507.95,44.09 503.86,47.22"/>
    </edge>
    <edge id=":12_12" function="internal">
        <lane id=":12_12_0" index="0" speed="9.43" length="12.13" shape="500.52,41.76 503.23,39.71 505.14,37.39 506.24,34.78 506.55,31.90"/>
    </edge>
    <edge id=":12_13" function="internal">
        <lane id=":12_13_0" index="0" speed="13.89" length="33.34" shape="500.52,41.76 506.42,39.34 513.82,38.42 522.72,38.99 533.11,41.05"/>
    </edge>
    <edge id=":12_14" function="internal">
        <lane id=":12_14_0" index="0" speed="13.89" length="30.80" shape="502.19,44.49 507.51,42.36 514.31,41.59 522.58,42.19 532.32,44.16"/>
    </edge>
    <edge id=":12_15" function="internal">
        <lane id=":12_15_0" index="0" speed="11.34" length="28.38" shape="502.19,44.49 507.31,42.99 512.78,44.57 518.61,49.22 524.79,56.95"/>
    </edge>
    <edge id=":13_0" function="internal">
        <lane id=":13_0_0" index="0" speed="11.34" length="27.22" shape="1410.36,-682.85 1404.82,-686.83 1398.91,-688.08 1392.62,-686.60 1385.94,-682.39"/>
    </edge>
    <edge id=":13_1" function="internal">
        <lane id=":13_1_0" index="0" speed="13.89" length="35.55" shape="1410.36,-682.85 1403.71,-688.25 1396.09,-692.11 1387.52,-694.43 1377.98,-695.20"/>
    </edge>
    <edge id=":13_2" function="internal">
        <lane id=":13_2_0" index="0" speed="13.89" length="37.70" shape="1412.62,-685.11 1405.63,-690.17 1396.40,-694.41 1386.62,-697.32 1377.98,-698.40"/>
    </edge>
    <edge id=":13_3" function="internal">
        <lane id=":13_3_0" index="0" speed="8.14" length="23.57" shape="1412.62,-685.11 1409.34,-690.65 1409.69,-695.99 1413.22,-700.01 1419.45,-701.60"/>
    </edge>
    <edge id=":13_4" function="internal">
        <lane id=":13_4_0" index="0" speed="5.47" length="9.74" shape="1419.45,-695.20 1416.36,-694.85 1414.94,-693.81 1415.21,-692.07 1417.15,-689.64"/>
    </edge>
    <edge id=":13_5" function="internal">
        <lane id=":13_5_0" index="0" speed="13.89" length="37.46" shape="1419.45,-695.20 1410.77,-694.47 1400.85,-692.40 1391.34,-689.14 1383.93,-684.87"/>
    </edge>
    <edge id=":13_6" function="internal">
        <lane id=":13_6_0" index="0" speed="13.89" length="41.47" shape="1419.45,-695.20 1377.98,-695.20"/>
        <lane id=":13_6_1" index="1" speed="13.89" length="41.47" shape="1419.45,-698.40 1377.98,-698.40"/>
    </edge>
    <edge id=":13_8" function="internal">
        <lane id=":13_8_0" index="0" speed="13.89" length="41.47" shape="1377.98,-704.80 1419.45,-704.80"/>
        <lane id=":13_8_1" index="1" speed="13.89" length="41.47" shape="1377.98,-701.60 1419.45,-701.60"/>
    </edge>
    <edge id=":13_10" function="internal">
        <lane id=":13_10_0" index="0" speed="13.89" length="13.54" shape="1377.98,-701.60 1388.79,-700.71 1391.39,-700.00"/>
    </edge>
    <edge id=":13_11" function="internal">
        <lane id=":13_11_0" index="0" speed="7.99" length="5.89" shape="1377.98,-701.60 1383.65,-700.00"/>
    </edge>
    <edge id=":13_16" function="internal">
        <lane id=":13_16_0" index="0" speed="13.89" length="27.04" shape="1391.39,-700.00 1398.55,-698.04 1407.25,-693.60 1414.89,-687.38"/>
    </edge>
    <edge id=":13_17" function="internal">
        <lane id=":13_17_0" index="0" speed="7.99" length="17.84" shape="1383.65,-700.00 1384.15,-699.86 1387.52,-695.57 1387.61,-690.11 1383.93,-684.87"/>
    </edge>
    <edge id=":13_12" function="internal">
        <lane id=":13_12_0" index="0" speed="5.46" length="10.13" shape="1379.89,-689.84 1382.24,-692.18 1382.71,-693.86 1381.29,-694.86 1377.98,-695.20"/>
    </edge>
    <edge id=":13_13" function="internal">
        <lane id=":13_13_0" index="0" speed="13.89" length="41.65" shape="1379.89,-689.84 1387.94,-694.83 1398.83,-699.68 1410.14,-703.35 1419.45,-704.80"/>
        <lane id=":13_13_1" index="1" speed="13.89" length="41.65" shape="1381.91,-687.35 1389.64,-692.24 1399.84,-696.84 1410.46,-700.26 1419.45,-701.60"/>
    </edge>
    <edge id=":13_15" function="internal">
        <lane id=":13_15_0" index="0" speed="13.12" length="36.78" shape="1381.91,-687.35 1390.79,-692.90 1399.25,-694.76 1407.28,-692.92 1414.89,-687.38"/>
    </edge>
    <edge id=":14_0" function="internal">
        <lane id=":14_0_0" index="0" speed="13.89" length="32.99" shape="421.56,404.80 388.57,404.80"/>
        <lane id=":14_0_1" index="1" speed="13.89" length="32.99" shape="421.56,401.60 388.57,401.60"/>
    </edge>
    <edge id=":14_2" function="internal">
        <lane id=":14_2_0" index="0" speed="12.77" length="11.73" shape="421.56,401.60 411.37,400.56 410.00,400.00"/>
    </edge>
    <edge id=":14_3" function="internal">
        <lane id=":14_3_0" index="0" speed="8.01" length="5.98" shape="421.56,401.60 415.80,400.00"/>
    </edge>
    <edge id=":14_16" function="internal">
        <lane id=":14_16_0" index="0" speed="12.77" length="21.73" shape="410.00,400.00 403.73,397.44 398.65,392.25 396.13,384.98"/>
    </edge>
    <edge id=":14_17" function="internal">
        <lane id=":14_17_0" index="0" speed="8.01" length="17.73" shape="415.80,400.00 415.38,399.88 411.98,395.63 411.85,390.19 415.48,384.90"/>
    </edge>
    <edge id=":14_4" function="internal">
        <lane id=":14_4_0" index="0" speed="5.46" length="10.06" shape="419.60,389.80 417.31,392.16 416.88,393.85 418.29,394.86 421.56,395.20"/>
    </edge>
    <edge id=":14_5" function="internal">
        <lane id=":14_5_0" index="0" speed="13.89" length="33.90" shape="419.60,389.80 412.92,394.86 404.96,399.71 396.56,403.36 388.57,404.80"/>
        <lane id=":14_5_1" index="1" speed="13.89" length="33.90" shape="417.54,387.35 411.19,392.29 403.93,396.89 396.24,400.28 388.57,401.60"/>
    </edge>
    <edge id=":14_7" function="internal">
        <lane id=":14_7_0" index="0" speed="9.27" length="27.58" shape="417.54,387.35 410.58,391.89 404.06,393.49 398.93,391.42 396.13,384.98"/>
    </edge>
    <edge id=":14_8" function="internal">
        <lane id=":14_8_0" index="0" speed="6.76" length="13.95" shape="402.46,384.03 403.52,386.47 405.71,387.02 409.01,385.68 413.42,382.45"/>
    </edge>
    <edge id=":14_9" function="internal">
        <lane id=":14_9_0" index="0" speed="10.93" length="24.26" shape="402.46,384.03 404.28,388.92 408.07,392.41 413.83,394.50 421.56,395.20"/>
    </edge>
    <edge id=":14_10" function="internal">
        <lane id=":14_10_0" index="0" speed="11.88" length="28.86" shape="399.29,384.50 401.47,390.58 405.90,394.93 412.60,397.53 421.56,398.40"/>
    </edge>
    <edge id=":14_11" function="internal">
        <lane id=":14_11_0" index="0" speed="9.69" length="23.72" shape="399.29,384.50 399.58,391.98 397.89,397.33 394.22,400.53 388.57,401.60"/>
    </edge>
    <edge id=":14_12" function="internal">
        <lane id=":14_12_0" index="0" speed="7.14" length="12.33" shape="388.57,395.20 391.04,394.59 392.60,392.76 393.24,389.72 392.96,385.45"/>
    </edge>
    <edge id=":14_13" function="internal">
        <lane id=":14_13_0" index="0" speed="13.89" length="29.38" shape="388.57,395.20 395.92,394.50 402.90,392.46 409.45,389.23 415.48,384.90"/>
    </edge>
    <edge id=":14_14" function="internal">
        <lane id=":14_14_0" index="0" speed="13.89" length="32.99" shape="388.57,395.20 421.56,395.20"/>
        <lane id=":14_14_1" index="1" speed="13.89" length="32.99" shape="388.57,398.40 421.56,398.40"/>
    </edge>
    <edge id=":15_0" function="internal">
        <lane id=":15_0_0" index="0" speed="5.46" length="10.34" shape="1221.09,146.06 1218.89,143.43 1217.27,142.80 1216.22,144.19 1215.74,147.59"/>
    </edge>
    <edge id=":15_1" function="internal">
        <lane id=":15_1_0" index="0" speed="13.89" length="28.35" shape="1221.09,146.06 1215.38,138.64 1209.86,133.39 1204.53,130.32 1199.39,129.43"/>
    </edge>
    <edge id=":15_2" function="internal">
        <lane id=":15_2_0" index="0" speed="13.89" length="36.63" shape="1221.09,146.06 1216.38,138.85 1211.25,130.35 1206.55,121.63 1203.09,113.78"/>
        <lane id=":15_2_1" index="1" speed="13.89" length="36.63" shape="1223.73,144.26 1219.08,137.16 1214.08,128.90 1209.50,120.43 1206.10,112.69"/>
    </edge>
    <edge id=":15_4" function="internal">
        <lane id=":15_4_0" index="0" speed="8.48" length="25.80" shape="1223.73,144.26 1220.86,137.38 1221.32,131.15 1224.91,126.99 1231.48,126.33"/>
    </edge>
    <edge id=":15_5" function="internal">
        <lane id=":15_5_0" index="0" speed="6.04" length="12.26" shape="1230.25,132.61 1227.27,132.54 1226.07,133.86 1226.65,136.57 1229.02,140.66"/>
    </edge>
    <edge id=":15_6" function="internal">
        <lane id=":15_6_0" index="0" speed="9.85" length="24.55" shape="1230.25,132.61 1224.19,132.54 1219.75,135.01 1216.93,140.03 1215.74,147.59"/>
    </edge>
    <edge id=":15_7" function="internal">
        <lane id=":15_7_0" index="0" speed="13.89" length="31.46" shape="1230.25,132.61 1222.69,131.25 1214.88,130.15 1207.04,129.49 1199.39,129.43"/>
        <lane id=":15_7_1" index="1" speed="13.89" length="31.46" shape="1230.86,129.47 1223.19,128.10 1215.13,126.99 1207.04,126.30 1199.26,126.23"/>
    </edge>
    <edge id=":15_9" function="internal">
        <lane id=":15_9_0" index="0" speed="13.89" length="11.37" shape="1230.86,129.47 1221.77,126.94 1220.05,126.07"/>
    </edge>
    <edge id=":15_25" function="internal">
        <lane id=":15_25_0" index="0" speed="13.89" length="19.88" shape="1220.05,126.07 1214.62,123.31 1209.39,118.55 1206.10,112.69"/>
    </edge>
    <edge id=":15_10" function="internal">
        <lane id=":15_10_0" index="0" speed="13.45" length="24.66" shape="1212.12,110.51 1214.65,114.84 1218.82,118.40 1224.63,121.18 1232.09,123.19"/>
    </edge>
    <edge id=":15_11" function="internal">
        <lane id=":15_11_0" index="0" speed="13.89" length="35.03" shape="1212.12,110.51 1215.40,118.02 1219.73,126.01 1224.48,133.78 1229.02,140.66"/>
        <lane id=":15_11_1" index="1" speed="13.89" length="35.03" shape="1209.11,111.60 1212.45,119.23 1216.91,127.46 1221.78,135.47 1226.37,142.46"/>
    </edge>
    <edge id=":15_13" function="internal">
        <lane id=":15_13_0" index="0" speed="13.89" length="36.17" shape="1209.11,111.60 1211.14,119.76 1212.27,129.30 1212.67,138.95 1212.54,147.45"/>
    </edge>
    <edge id=":15_14" function="internal">
        <lane id=":15_14_0" index="0" speed="8.89" length="21.96" shape="1209.11,111.60 1210.40,117.78 1209.19,122.28 1205.48,125.10 1199.26,126.23"/>
    </edge>
    <edge id=":15_15" function="internal">
        <lane id=":15_15_0" index="0" speed="5.94" length="9.09" shape="1199.02,119.84 1201.59,119.37 1203.13,118.20 1203.63,116.34 1203.09,113.78"/>
    </edge>
    <edge id=":15_16" function="internal">
        <lane id=":15_16_0" index="0" speed="13.89" length="32.93" shape="1199.02,119.84 1207.02,119.93 1215.62,120.65 1224.19,121.80 1232.09,123.19"/>
        <lane id=":15_16_1" index="1" speed="13.89" length="32.93" shape="1199.14,123.03 1207.03,123.12 1215.37,123.82 1223.69,124.95 1231.48,126.33"/>
    </edge>
    <edge id=":15_18" function="internal">
        <lane id=":15_18_0" index="0" speed="13.89" length="8.32" shape="1199.14,123.03 1205.95,124.05 1207.22,124.71"/>
    </edge>
    <edge id=":15_19" function="internal">
        <lane id=":15_19_0" index="0" speed="11.38" length="6.88" shape="1199.14,123.03 1205.41,124.35 1205.74,124.69"/>
    </edge>
    <edge id=":15_26" function="internal">
        <lane id=":15_26_0" index="0" speed="13.89" length="26.47" shape="1207.22,124.71 1212.76,127.63 1219.57,133.76 1226.37,142.46"/>
    </edge>
    <edge id=":15_27" function="internal">
        <lane id=":15_27_0" index="0" speed="11.38" length="24.73" shape="1205.74,124.69 1209.73,128.86 1212.11,136.56 1212.54,147.45"/>
    </edge>
    <edge id=":15_20" function="internal">
        <lane id=":15_20_0" index="0" speed="9.34" length="20.94" shape="1206.15,147.17 1206.02,139.30 1204.85,133.72 1202.64,130.43 1199.39,129.43"/>
    </edge>
    <edge id=":15_21" function="internal">
        <lane id=":15_21_0" index="0" speed="13.89" length="33.70" shape="1206.15,147.17 1206.33,139.06 1206.06,130.25 1205.07,121.56 1203.09,113.78"/>
    </edge>
    <edge id=":15_22" function="internal">
        <lane id=":15_22_0" index="0" speed="12.87" length="42.74" shape="1206.15,147.17 1207.85,134.62 1212.21,126.41 1220.03,122.59 1232.09,123.19"/>
    </edge>
    <edge id=":15_23" function="internal">
        <lane id=":15_23_0" index="0" speed="11.98" length="36.89" shape="1209.34,147.31 1210.77,136.43 1214.45,129.25 1221.11,125.85 1231.48,126.33"/>
    </edge>
    <edge id=":15_24" function="internal">
        <lane id=":15_24_0" index="0" speed="7.93" length="23.78" shape="1209.34,147.31 1211.41,141.26 1215.94,138.15 1221.44,138.41 1226.37,142.46"/>
    </edge>
    <edge id=":16_0" function="internal">
        <lane id=":16_0_0" index="0" speed="3.90" length="2.58" shape="1595.20,-693.60 1595.10,-694.30 1594.80,-694.80 1594.30,-695.10 1593.60,-695.20"/>
    </edge>
    <edge id=":16_1" function="internal">
        <lane id=":16_1_0" index="0" speed="6.08" length="7.74" shape="1598.40,-693.60 1598.10,-695.70 1597.20,-697.20 1595.70,-698.10 1593.60,-698.40"/>
    </edge>
    <edge id=":16_2" function="internal">
        <lane id=":16_2_0" index="0" speed="8.96" length="18.06" shape="1593.60,-704.80 1598.50,-704.10 1602.00,-702.00 1604.10,-698.50 1604.80,-693.60"/>
    </edge>
    <edge id=":16_3" function="internal">
        <lane id=":16_3_0" index="0" speed="7.66" length="12.90" shape="1593.60,-701.60 1597.10,-701.10 1599.60,-699.60 1601.10,-697.10 1601.60,-693.60"/>
    </edge>
    <edge id=":17_0" function="internal">
        <lane id=":17_0_0" index="0" speed="5.90" length="9.10" shape="627.37,222.91 626.09,220.61 624.50,219.53 622.59,219.70 620.35,221.09"/>
    </edge>
    <edge id=":17_1" function="internal">
        <lane id=":17_1_0" index="0" speed="13.89" length="21.97" shape="627.37,222.91 625.15,217.12 623.33,212.88 621.11,208.85 617.71,203.68"/>
        <lane id=":17_1_1" index="1" speed="13.89" length="21.97" shape="630.36,221.77 628.09,215.88 626.14,211.41 623.80,207.14 620.35,201.87"/>
    </edge>
    <edge id=":17_3" function="internal">
        <lane id=":17_3_0" index="0" speed="13.89" length="23.49" shape="625.63,198.25 629.19,203.73 631.77,208.46 633.96,213.39 636.34,219.49"/>
        <lane id=":17_3_1" index="1" speed="13.89" length="23.49" shape="622.99,200.06 626.50,205.44 628.96,209.93 631.02,214.63 633.35,220.63"/>
    </edge>
    <edge id=":17_5" function="internal">
        <lane id=":17_5_0" index="0" speed="10.06" length="6.54" shape="622.99,200.06 625.09,204.70 625.06,206.14"/>
    </edge>
    <edge id=":17_8" function="internal">
        <lane id=":17_8_0" index="0" speed="10.06" length="14.80" shape="625.06,206.14 625.00,209.35 622.74,213.99 618.30,218.64"/>
    </edge>
    <edge id=":17_6" function="internal">
        <lane id=":17_6_0" index="0" speed="7.61" length="11.77" shape="614.18,213.74 616.88,211.03 618.37,208.44 618.65,206.00 617.71,203.68"/>
    </edge>
    <edge id=":17_7" function="internal">
        <lane id=":17_7_0" index="0" speed="8.87" length="22.21" shape="616.24,216.19 621.68,212.79 626.35,212.39 630.24,215.01 633.35,220.63"/>
    </edge>
    <edge id=":18_0" function="internal">
        <lane id=":18_0_0" index="0" speed="13.89" length="20.81" shape="1210.68,404.80 1189.87,404.80"/>
        <lane id=":18_0_1" index="1" speed="13.89" length="20.81" shape="1210.68,401.60 1189.87,401.60"/>
    </edge>
    <edge id=":18_2" function="internal">
        <lane id=":18_2_0" index="0" speed="9.19" length="7.01" shape="1210.68,401.60 1205.31,400.83 1203.97,400.00"/>
    </edge>
    <edge id=":18_8" function="internal">
        <lane id=":18_8_0" index="0" speed="9.19" length="12.68" shape="1203.97,400.00 1201.55,398.51 1199.40,394.66 1198.86,389.26"/>
    </edge>
    <edge id=":18_3" function="internal">
        <lane id=":18_3_0" index="0" speed="6.41" length="9.04" shape="1205.26,389.53 1205.50,392.01 1206.49,393.78 1208.22,394.85 1210.68,395.20"/>
    </edge>
    <edge id=":18_4" function="internal">
        <lane id=":18_4_0" index="0" speed="9.44" length="19.48" shape="1202.06,389.40 1201.10,394.74 1198.75,398.55 1195.01,400.84 1189.87,401.60"/>
    </edge>
    <edge id=":18_5" function="internal">
        <lane id=":18_5_0" index="0" speed="6.75" length="9.48" shape="1189.87,395.20 1192.31,394.82 1194.09,393.68 1195.21,391.78 1195.67,389.12"/>
    </edge>
    <edge id=":18_6" function="internal">
        <lane id=":18_6_0" index="0" speed="13.89" length="20.81" shape="1189.87,395.20 1210.68,395.20"/>
        <lane id=":18_6_1" index="1" speed="13.89" length="20.81" shape="1189.87,398.40 1210.68,398.40"/>
    </edge>
    <edge id=":19_0" function="internal">
        <lane id=":19_0_0" index="0" speed="5.46" length="10.34" shape="1595.20,-476.72 1594.87,-480.14 1593.88,-481.57 1592.23,-481.01 1589.93,-478.47"/>
    </edge>
    <edge id=":19_1" function="internal">
        <lane id=":19_1_0" index="0" speed="13.89" length="38.14" shape="1595.20,-476.72 1594.57,-488.64 1592.68,-498.60 1589.53,-506.60 1585.11,-512.62"/>
    </edge>
    <edge id=":19_2" function="internal">
        <lane id=":19_2_0" index="0" speed="13.89" length="42.73" shape="1595.20,-476.72 1595.20,-519.45"/>
        <lane id=":19_2_1" index="1" speed="13.89" length="42.73" shape="1598.40,-476.72 1598.40,-519.45"/>
    </edge>
    <edge id=":19_4" function="internal">
        <lane id=":19_4_0" index="0" speed="13.89" length="42.73" shape="1604.80,-519.45 1604.80,-476.72"/>
        <lane id=":19_4_1" index="1" speed="13.89" length="42.73" shape="1601.60,-519.45 1601.60,-476.72"/>
    </edge>
    <edge id=":19_6" function="internal">
        <lane id=":19_6_0" index="0" speed="13.89" length="10.02" shape="1601.60,-519.45 1600.22,-510.25 1600.00,-509.57"/>
    </edge>
    <edge id=":19_7" function="internal">
        <lane id=":19_7_0" index="0" speed="8.14" length="6.43" shape="1601.60,-519.45 1600.01,-513.22"/>
    </edge>
    <edge id=":19_16" function="internal">
        <lane id=":19_16_0" index="0" speed="13.89" length="31.93" shape="1600.00,-509.57 1596.72,-499.17 1592.11,-488.46 1587.36,-480.38"/>
    </edge>
    <edge id=":19_17" function="internal">
        <lane id=":19_17_0" index="0" speed="8.14" length="17.13" shape="1600.01,-513.22 1595.99,-509.69 1590.65,-509.34 1585.11,-512.62"/>
    </edge>
    <edge id=":19_8" function="internal">
        <lane id=":19_8_0" index="0" speed="5.47" length="9.74" shape="1589.64,-517.15 1592.07,-515.21 1593.81,-514.94 1594.85,-516.36 1595.20,-519.45"/>
    </edge>
    <edge id=":19_9" function="internal">
        <lane id=":19_9_0" index="0" speed="13.89" length="43.71" shape="1589.64,-517.15 1594.99,-509.25 1599.87,-498.03 1603.43,-486.26 1604.80,-476.72"/>
    </edge>
    <edge id=":19_10" function="internal">
        <lane id=":19_10_0" index="0" speed="13.89" length="41.29" shape="1587.38,-514.89 1592.58,-507.34 1597.14,-496.90 1600.37,-485.91 1601.60,-476.72"/>
    </edge>
    <edge id=":19_11" function="internal">
        <lane id=":19_11_0" index="0" speed="13.59" length="38.16" shape="1587.38,-514.89 1592.90,-507.20 1594.74,-498.89 1592.89,-489.95 1587.36,-480.38"/>
    </edge>
    <edge id=":19_12" function="internal">
        <lane id=":19_12_0" index="0" speed="11.87" length="28.89" shape="1582.23,-484.21 1586.56,-491.59 1588.11,-498.41 1586.87,-504.67 1582.85,-510.36"/>
    </edge>
    <edge id=":19_13" function="internal">
        <lane id=":19_13_0" index="0" speed="13.89" length="38.95" shape="1582.23,-484.21 1586.78,-491.69 1590.96,-501.09 1594.01,-510.85 1595.20,-519.45"/>
        <lane id=":19_13_1" index="1" speed="13.89" length="38.95" shape="1584.80,-482.30 1589.44,-490.08 1593.84,-500.13 1597.12,-510.55 1598.40,-519.45"/>
    </edge>
    <edge id=":19_15" function="internal">
        <lane id=":19_15_0" index="0" speed="7.93" length="23.78" shape="1584.80,-482.30 1589.90,-486.13 1595.40,-486.15 1599.80,-482.85 1601.60,-476.72"/>
    </edge>
    <edge id=":2_0" function="internal">