<?xml version="1.0" encoding="UTF-8"?>

<!-- generated on Friday 04 September 2020 03:13:36 PM IST by Eclipse SUMO netedit Version 1.6.0
<configuration xmlns:xsi="http://www.w3.org/2001/XMLSchema-instance" xsi:noNamespaceSchemaLocation="http://sumo.dlr.de/xsd/netconvertConfiguration.xsd">

    <input>
        <sumo-net-file value="/home/vishwajeet/Documents/pro..s/Prof/dl/Code/first/first.net.xml"/>
    </input>

    <output>
        <output-file value="/home/vishwajeet/Documents/pro..s/Prof/dl/Code/first/first.net.xml"/>
        <plain-output-prefix value=""/>
    </output>

    <processing>
        <geometry.min-radius.fix.railways value="false"/>
        <geometry.max-grade.fix value="false"/>
        <offset.disable-normalization value="true"/>
        <lefthand value="false"/>
    </processing>

    <junctions>
        <no-turnarounds value="true"/>
        <junctions.corner-detail value="5"/>
        <junctions.limit-turn-speed value="5.5"/>
        <rectangular-lane-cut value="false"/>
    </junctions>

    <pedestrian>
        <walkingareas value="false"/>
    </pedestrian>

    <report>
        <aggregate-warnings value="5"/>
    </report>

</configuration>
-->

<net version="1.6" junctionCornerDetail="5" limitTurnSpeed="5.50" xmlns:xsi="http://www.w3.org/2001/XMLSchema-instance" xsi:noNamespaceSchemaLocation="http://sumo.dlr.de/xsd/net_file.xsd">

    <location netOffset="0.00,0.00" convBoundary="-100.00,-400.00,400.00,100.00" origBoundary="-10000000000.00,-10000000000.00,10000000000.00,10000000000.00" projParameter="!"/>

    <edge id=":0_0" function="internal">
        <lane id=":0_0_0" index="0" speed="8.96" length="18.06" shape="-104.80,-393.60 -104.10,-398.50 -102.00,-402.00 -98.50,-404.10 -93.60,-404.80"/>
    </edge>
    <edge id=":0_1" function="internal">
        <lane id=":0_1_0" index="0" speed="7.66" length="12.90" shape="-101.60,-393.60 -101.10,-397.10 -99.60,-399.60 -97.10,-401.10 -93.60,-401.60"/>
    </edge>
    <edge id=":0_2" function="internal">
        <lane id=":0_2_0" index="0" speed="3.90" length="2.58" shape="-93.60,-395.20 -94.30,-395.10 -94.80,-394.80 -95.10,-394.30 -95.20,-393.60"/>
    </edge>
    <edge id=":0_3" function="internal">
        <lane id=":0_3_0" index="0" speed="6.08" length="7.74" shape="-93.60,-398.40 -95.70,-398.10 -97.20,-397.20 -98.10,-395.70 -98.40,-393.60"/>
    </edge>
    <edge id=":1_0" function="internal">
        <lane id=":1_0_0" index="0" speed="6.51" length="9.03" shape="95.20,-389.60 94.85,-392.05 93.80,-393.80 92.05,-394.85 89.60,-395.20"/>
    </edge>
    <edge id=":1_1" function="internal">
        <lane id=":1_1_0" index="0" speed="9.26" length="19.35" shape="98.40,-389.60 99.15,-394.85 101.40,-398.60 105.15,-400.85 110.40,-401.60"/>
    </edge>
    <edge id=":1_2" function="internal">
        <lane id=":1_2_0" index="0" speed="6.51" length="9.03" shape="110.40,-395.20 107.95,-394.85 106.20,-393.80 105.15,-392.05 104.80,-389.60"/>
    </edge>
    <edge id=":1_3" function="internal">
        <lane id=":1_3_0" index="0" speed="13.89" length="20.80" shape="110.40,-395.20 89.60,-395.20"/>
        <lane id=":1_3_1" index="1" speed="13.89" length="20.80" shape="110.40,-398.40 89.60,-398.40"/>
    </edge>
    <edge id=":1_5" function="internal">
        <lane id=":1_5_0" index="0" speed="13.89" length="20.80" shape="89.60,-404.80 110.40,-404.80"/>
        <lane id=":1_5_1" index="1" speed="13.89" length="20.80" shape="89.60,-401.60 110.40,-401.60"/>
    </edge>
    <edge id=":1_7" function="internal">
        <lane id=":1_7_0" index="0" speed="9.26" length="6.96" shape="89.60,-401.60 94.85,-400.85 96.27,-400.00"/>
    </edge>
    <edge id=":1_8" function="internal">
        <lane id=":1_8_0" index="0" speed="9.26" length="12.40" shape="96.27,-400.00 98.60,-398.60 100.85,-394.85 101.60,-389.60"/>
    </edge>
    <edge id=":10_0" function="internal">
        <lane id=":10_0_0" index="0" speed="13.89" length="20.80" shape="-104.80,-89.60 -104.80,-110.40"/>
        <lane id=":10_0_1" index="1" speed="13.89" length="20.80" shape="-101.60,-89.60 -101.60,-110.40"/>
    </edge>
    <edge id=":10_2" function="internal">
        <lane id=":10_2_0" index="0" speed="9.26" length="6.96" shape="-101.60,-89.60 -100.85,-94.85 -100.00,-96.27"/>
    </edge>
    <edge id=":10_8" function="internal">
        <lane id=":10_8_0" index="0" speed="9.26" length="12.40" shape="-100.00,-96.27 -98.60,-98.60 -94.85,-100.85 -89.60,-101.60"/>
    </edge>
    <edge id=":10_3" function="internal">
        <lane id=":10_3_0" index="0" speed="6.51" length="9.03" shape="-89.60,-95.20 -92.05,-94.85 -93.80,-93.80 -94.85,-92.05 -95.20,-89.60"/>
    </edge>
    <edge id=":10_4" function="internal">
        <lane id=":10_4_0" index="0" speed="9.26" length="19.35" shape="-89.60,-98.40 -94.85,-99.15 -98.60,-101.40 -100.85,-105.15 -101.60,-110.40"/>
    </edge>
    <edge id=":10_5" function="internal">
        <lane id=":10_5_0" index="0" speed="6.51" length="9.03" shape="-95.20,-110.40 -94.85,-107.95 -93.80,-106.20 -92.05,-105.15 -89.60,-104.80"/>
    </edge>
    <edge id=":10_6" function="internal">
        <lane id=":10_6_0" index="0" speed="13.89" length="20.80" shape="-95.20,-110.40 -95.20,-89.60"/>
        <lane id=":10_6_1" index="1" speed="13.89" length="20.80" shape="-98.40,-110.40 -98.40,-89.60"/>
    </edge>
    <edge id=":11_0" function="internal">
        <lane id=":11_0_0" index="0" speed="6.51" length="9.03" shape="95.20,-89.60 94.85,-92.05 93.80,-93.80 92.05,-94.85 89.60,-95.20"/>
    </edge>
    <edge id=":11_1" function="internal">
        <lane id=":11_1_0" index="0" speed="13.89" length="20.80" shape="95.20,-89.60 95.20,-110.40"/>
        <lane id=":11_1_1" index="1" speed="13.89" length="20.80" shape="98.40,-89.60 98.40,-110.40"/>
    </edge>
    <edge id=":11_3" function="internal">
        <lane id=":11_3_0" index="0" speed="9.26" length="6.96" shape="98.40,-89.60 99.15,-94.85 100.00,-96.27"/>
    </edge>
    <edge id=":11_16" function="internal">
        <lane id=":11_16_0" index="0" speed="9.26" length="12.40" shape="100.00,-96.27 101.40,-98.60 105.15,-100.85 110.40,-101.60"/>
    </edge>
    <edge id=":11_4" function="internal">
        <lane id=":11_4_0" index="0" speed="6.51" length="9.03" shape="110.40,-95.20 107.95,-94.85 106.20,-93.80 105.15,-92.05 104.80,-89.60"/>
    </edge>
    <edge id=":11_5" function="internal">
        <lane id=":11_5_0" index="0" speed="13.89" length="20.80" shape="110.40,-95.20 89.60,-95.20"/>
        <lane id=":11_5_1" index="1" speed="13.89" length="20.80" shape="110.40,-98.40 89.60,-98.40"/>
    </edge>
    <edge id=":11_7" function="internal">
        <lane id=":11_7_0" index="0" speed="9.26" length="19.35" shape="110.40,-98.40 105.15,-99.15 101.40,-101.40 99.15,-105.15 98.40,-110.40"/>
    </edge>
    <edge id=":11_8" function="internal">
        <lane id=":11_8_0" index="0" speed="6.51" length="9.03" shape="104.80,-110.40 105.15,-107.95 106.20,-106.20 107.95,-105.15 110.40,-104.80"/>
    </edge>
    <edge id=":11_9" function="internal">
        <lane id=":11_9_0" index="0" speed="13.89" length="20.80" shape="104.80,-110.40 104.80,-89.60"/>
        <lane id=":11_9_1" index="1" speed="13.89" length="20.80" shape="101.60,-110.40 101.60,-89.60"/>
    </edge>
    <edge id=":11_11" function="internal">
        <lane id=":11_11_0" index="0" speed="9.26" length="6.96" shape="101.60,-110.40 100.85,-105.15 100.00,-103.73"/>
    </edge>
    <edge id=":11_17" function="internal">
        <lane id=":11_17_0" index="0" speed="9.26" length="12.40" shape="100.00,-103.73 98.60,-101.40 94.85,-99.15 89.60,-98.40"/>
    </edge>
    <edge id=":11_12" function="internal">
        <lane id=":11_12_0" index="0" speed="6.51" length="9.03" shape="89.60,-104.80 92.05,-105.15 93.80,-106.20 94.85,-107.95 95.20,-110.40"/>
    </edge>
    <edge id=":11_13" function="internal">
        <lane id=":11_13_0" index="0" speed="13.89" length="20.80" shape="89.60,-104.80 110.40,-104.80"/>
        <lane id=":11_13_1" index="1" speed="13.89" length="20.80" shape="89.60,-101.60 110.40,-101.60"/>
    </edge>
    <edge id=":11_15" function="internal">
        <lane id=":11_15_0" index="0" speed="9.26" length="19.35" shape="89.60,-101.60 94.85,-100.85 98.60,-98.60 100.85,-94.85 101.60,-89.60"/>
    </edge>
    <edge id=":12_0" function="internal">
        <lane id=":12_0_0" index="0" speed="6.51" length="9.03" shape="195.20,-89.60 194.85,-92.05 193.80,-93.80 192.05,-94.85 189.60,-95.20"/>
    </edge>
    <edge id=":12_1" function="internal">
        <lane id=":12_1_0" index="0" speed="13.89" length="20.80" shape="195.20,-89.60 195.20,-110.40"/>
        <lane id=":12_1_1" index="1" speed="13.89" length="20.80" shape="198.40,-89.60 198.40,-110.40"/>
    </edge>
    <edge id=":12_3" function="internal">
        <lane id=":12_3_0" index="0" speed="9.26" length="6.96" shape="198.40,-89.60 199.15,-94.85 200.00,-96.27"/>
    </edge>
    <edge id=":12_16" function="internal">
        <lane id=":12_16_0" index="0" speed="9.26" length="12.40" shape="200.00,-96.27 201.40,-98.60 205.15,-100.85 210.40,-101.60"/>
    </edge>
    <edge id=":12_4" function="internal">
        <lane id=":12_4_0" index="0" speed="6.51" length="9.03" shape="210.40,-95.20 207.95,-94.85 206.20,-93.80 205.15,-92.05 204.80,-89.60"/>
    </edge>
    <edge id=":12_5" function="internal">
        <lane id=":12_5_0" index="0" speed="13.89" length="20.80" shape="210.40,-95.20 189.60,-95.20"/>
        <lane id=":12_5_1" index="1" speed="13.89" length="20.80" shape="210.40,-98.40 189.60,-98.40"/>
    </edge>
    <edge id=":12_7" function="internal">
        <lane id=":12_7_0" index="0" speed="9.26" length="19.35" shape="210.40,-98.40 205.15,-99.15 201.40,-101.40 199.15,-105.15 198.40,-110.40"/>
    </edge>
    <edge id=":12_8" function="internal">
        <lane id=":12_8_0" index="0" speed="6.51" length="9.03" shape="204.80,-110.40 205.15,-107.95 206.20,-106.20 207.95,-105.15 210.40,-104.80"/>
    </edge>
    <edge id=":12_9" function="internal">
        <lane id=":12_9_0" index="0" speed="13.89" length="20.80" shape="204.80,-110.40 204.80,-89.60"/>
        <lane id=":12_9_1" index="1" speed="13.89" length="20.80" shape="201.60,-110.40 201.60,-89.60"/>
    </edge>
    <edge id=":12_11" function="internal">
        <lane id=":12_11_0" index="0" speed="9.26" length="6.96" shape="201.60,-110.40 200.85,-105.15 200.00,-103.73"/>
    </edge>
    <edge id=":12_17" function="internal">
        <lane id=":12_17_0" index="0" speed="9.26" length="12.40" shape="200.00,-103.73 198.60,-101.40 194.85,-99.15 189.60,-98.40"/>
    </edge>
    <edge id=":12_12" function="internal">
        <lane id=":12_12_0" index="0" speed="6.51" length="9.03" shape="189.60,-104.80 192.05,-105.15 193.80,-106.20 194.85,-107.95 195.20,-110.40"/>
    </edge>
    <edge id=":12_13" function="internal">
        <lane id=":12_13_0" index="0" speed="13.89" length="20.80" shape="189.60,-104.80 210.40,-104.80"/>
        <lane id=":12_13_1" index="1" speed="13.89" length="20.80" shape="189.60,-101.60 210.40,-101.60"/>
    </edge>
    <edge id=":12_15" function="internal">
        <lane id=":12_15_0" index="0" speed="9.26" length="19.35" shape="189.60,-101.60 194.85,-100.85 198.60,-98.60 200.85,-94.85 201.60,-89.60"/>
    </edge>
    <edge id=":13_0" function="internal">
        <lane id=":13_0_0" index="0" speed="6.51" length="9.03" shape="295.20,-89.60 294.85,-92.05 293.80,-93.80 292.05,-94.85 289.60,-95.20"/>
    </edge>
    <edge id=":13_1" function="internal">
        <lane id=":13_1_0" index="0" speed="13.89" length="20.80" shape="295.20,-89.60 295.20,-110.40"/>
        <lane id=":13_1_1" index="1" speed="13.89" length="20.80" shape="298.40,-89.60 298.40,-110.40"/>
    </edge>
    <edge id=":13_3" function="internal">
        <lane id=":13_3_0" index="0" speed="9.26" length="6.96" shape="298.40,-89.60 299.15,-94.85 300.00,-96.27"/>
    </edge>
    <edge id=":13_16" function="internal">
        <lane id=":13_16_0" index="0" speed="9.26" length="12.40" shape="300.00,-96.27 301.40,-98.60 305.15,-100.85 310.40,-101.60"/>
    </edge>
    <edge id=":13_4" function="internal">
        <lane id=":13_4_0" index="0" speed="6.51" length="9.03" shape="310.40,-95.20 307.95,-94.85 306.20,-93.80 305.15,-92.05 304.80,-89.60"/>
    </edge>
    <edge id=":13_5" function="internal">
        <lane id=":13_5_0" index="0" speed="13.89" length="20.80" shape="310.40,-95.20 289.60,-95.20"/>
        <lane id=":13_5_1" index="1" speed="13.89" length="20.80" shape="310.40,-98.40 289.60,-98.40"/>
    </edge>
    <edge id=":13_7" function="internal">
        <lane id=":13_7_0" index="0" speed="9.26" length="19.35" shape="310.40,-98.40 305.15,-99.15 301.40,-101.40 299.15,-105.15 298.40,-110.40"/>
    </edge>
    <edge id=":13_8" function="internal">
        <lane id=":13_8_0" index="0" speed="6.51" length="9.03" shape="304.80,-110.40 305.15,-107.95 306.20,-106.20 307.95,-105.15 310.40,-104.80"/>
    </edge>
    <edge id=":13_9" function="internal">
        <lane id=":13_9_0" index="0" speed="13.89" length="20.80" shape="304.80,-110.40 304.80,-89.60"/>
        <lane id=":13_9_1" index="1" speed="13.89" length="20.80" shape="301.60,-110.40 301.60,-89.60"/>
    </edge>
    <edge id=":13_11" function="internal">
        <lane id=":13_11_0" index="0" speed="9.26" length="6.96" shape="301.60,-110.40 300.85,-105.15 300.00,-103.73"/>
    </edge>
    <edge id=":13_17" function="internal">
        <lane id=":13_17_0" index="0" speed="9.26" length="12.40" shape="300.00,-103.73 298.60,-101.40 294.85,-99.15 289.60,-98.40"/>
    </edge>
    <edge id=":13_12" function="internal">
        <lane id=":13_12_0" index="0" speed="6.51" length="9.03" shape="289.60,-104.80 292.05,-105.15 293.80,-106.20 294.85,-107.95 295.20,-110.40"/>
    </edge>
    <edge id=":13_13" function="internal">
        <lane id=":13_13_0" index="0" speed="13.89" length="20.80" shape="289.60,-104.80 310.40,-104.80"/>
        <lane id=":13_13_1" index="1" speed="13.89" length="20.80" shape="289.60,-101.60 310.40,-101.60"/>
    </edge>
    <edge id=":13_15" function="internal">
        <lane id=":13_15_0" index="0" speed="9.26" length="19.35" shape="289.60,-101.60 294.85,-100.85 298.60,-98.60 300.85,-94.85 301.60,-89.60"/>
    </edge>
    <edge id=":14_0" function="internal">
        <lane id=":14_0_0" index="0" speed="6.51" length="9.03" shape="395.20,-89.60 394.85,-92.05 393.80,-93.80 392.05,-94.85 389.60,-95.20"/>
    </edge>
    <edge id=":14_1" function="internal">
        <lane id=":14_1_0" index="0" speed="13.89" length="20.80" shape="395.20,-89.60 395.20,-110.40"/>
        <lane id=":14_1_1" index="1" speed="13.89" length="20.80" shape="398.40,-89.60 398.40,-110.40"/>
    </edge>
    <edge id=":14_3" function="internal">
        <lane id=":14_3_0" index="0" speed="13.89" length="20.80" shape="404.80,-110.40 404.80,-89.60"/>
        <lane id=":14_3_1" index="1" speed="13.89" length="20.80" shape="401.60,-110.40 401.60,-89.60"/>
    </edge>
    <edge id=":14_5" function="internal">
        <lane id=":14_5_0" index="0" speed="9.26" length="6.96" shape="401.60,-110.40 400.85,-105.15 400.00,-103.73"/>
    </edge>
    <edge id=":14_8" function="internal">
        <lane id=":14_8_0" index="0" speed="9.26" length="12.40" shape="400.00,-103.73 398.60,-101.40 394.85,-99.15 389.60,-98.40"/>
    </edge>
    <edge id=":14_6" function="internal">
        <lane id=":14_6_0" index="0" speed="6.51" length="9.03" shape="389.60,-104.80 392.05,-105.15 393.80,-106.20 394.85,-107.95 395.20,-110.40"/>
    </edge>
    <edge id=":14_7" function="internal">
        <lane id=":14_7_0" index="0" speed="9.26" length="19.35" shape="389.60,-101.60 394.85,-100.85 398.60,-98.60 400.85,-94.85 401.60,-89.60"/>
    </edge>
    <edge id=":15_0" function="internal">
        <lane id=":15_0_0" index="0" speed="13.89" length="20.80" shape="-104.80,10.40 -104.80,-10.40"/>
        <lane id=":15_0_1" index="1" speed="13.89" length="20.80" shape="-101.60,10.40 -101.60,-10.40"/>
    </edge>
    <edge id=":15_2" function="internal">
        <lane id=":15_2_0" index="0" speed="9.26" length="6.96" shape="-101.60,10.40 -100.85,5.15 -100.00,3.73"/>
    </edge>
    <edge id=":15_8" function="internal">
        <lane id=":15_8_0" index="0" speed="9.26" length="12.40" shape="-100.00,3.73 -98.60,1.40 -94.85,-0.85 -89.60,-1.60"/>
    </edge>
    <edge id=":15_3" function="internal">
        <lane id=":15_3_0" index="0" speed="6.51" length="9.03" shape="-89.60,4.80 -92.05,5.15 -93.80,6.20 -94.85,7.95 -95.20,10.40"/>
    </edge>
    <edge id=":15_4" function="internal">
        <lane id=":15_4_0" index="0" speed="9.26" length="19.35" shape="-89.60,1.60 -94.85,0.85 -98.60,-1.40 -100.85,-5.15 -101.60,-10.40"/>
    </edge>
    <edge id=":15_5" function="internal">
        <lane id=":15_5_0" index="0" speed="6.51" length="9.03" shape="-95.20,-10.40 -94.85,-7.95 -93.80,-6.20 -92.05,-5.15 -89.60,-4.80"/>
    </edge>
    <edge id=":15_6" function="internal">
        <lane id=":15_6_0" index="0" speed="13.89" length="20.80" shape="-95.20,-10.40 -95.20,10.40"/>
        <lane id=":15_6_1" index="1" speed="13.89" length="20.80" shape="-98.40,-10.40 -98.40,10.40"/>
    </edge>
    <edge id=":16_0" function="internal">
        <lane id=":16_0_0" index="0" speed="6.51" length="9.03" shape="95.20,10.40 94.85,7.95 93.80,6.20 92.05,5.15 89.60,4.80"/>
    </edge>
    <edge id=":16_1" function="internal">
        <lane id=":16_1_0" index="0" speed="13.89" length="20.80" shape="95.20,10.40 95.20,-10.40"/>
        <lane id=":16_1_1" index="1" speed="13.89" length="20.80" shape="98.40,10.40 98.40,-10.40"/>
    </edge>
    <edge id=":16_3" function="internal">
        <lane id=":16_3_0" index="0" speed="9.26" length="6.96" shape="98.40,10.40 99.15,5.15 100.00,3.73"/>
    </edge>
    <edge id=":16_16" function="internal">
        <lane id=":16_16_0" index="0" speed="9.26" length="12.40" shape="100.00,3.73 101.40,1.40 105.15,-0.85 110.40,-1.60"/>
    </edge>
    <edge id=":16_4" function="internal">
        <lane id=":16_4_0" index="0" speed="6.51" length="9.03" shape="110.40,4.80 107.95,5.15 106.20,6.20 105.15,7.95 104.80,10.40"/>
    </edge>
    <edge id=":16_5" function="internal">
        <lane id=":16_5_0" index="0" speed="13.89" length="20.80" shape="110.40,4.80 89.60,4.80"/>
        <lane id=":16_5_1" index="1" speed="13.89" length="20.80" shape="110.40,1.60 89.60,1.60"/>
    </edge>
    <edge id=":16_7" function="internal">
        <lane id=":16_7_0" index="0" speed="9.26" length="19.35" shape="110.40,1.60 105.15,0.85 101.40,-1.40 99.15,-5.15 98.40,-10.40"/>
    </edge>
    <edge id=":16_8" function="internal">
        <lane id=":16_8_0" index="0" speed="6.51" length="9.03" shape="104.80,-10.40 105.15,-7.95 106.20,-6.20 107.95,-5.15 110.40,-4.80"/>
    </edge>
    <edge id=":16_9" function="internal">
        <lane id=":16_9_0" index="0" speed="13.89" length="20.80" shape="104.80,-10.40 104.80,10.40"/>
        <lane id=":16_9_1" index="1" speed="13.89" length="20.80" shape="101.60,-10.40 101.60,10.40"/>
    </edge>
    <edge id=":16_11" function="internal">
        <lane id=":16_11_0" index="0" speed="9.26" length="6.96" shape="101.60,-10.40 100.85,-5.15 100.00,-3.73"/>
    </edge>
    <edge id=":16_17" function="internal">
        <lane id=":16_17_0" index="0" speed="9.26" length="12.40" shape="100.00,-3.73 98.60,-1.40 94.85,0.85 89.60,1.60"/>
    </edge>
    <edge id=":16_12" function="internal">
        <lane id=":16_12_0" index="0" speed="6.51" length="9.03" shape="89.60,-4.80 92.05,-5.15 93.80,-6.20 94.85,-7.95 95.20,-10.40"/>
    </edge>
    <edge id=":16_13" function="internal">
        <lane id=":16_13_0" index="0" speed="13.89" length="20.80" shape="89.60,-4.80 110.40,-4.80"/>
        <lane id=":16_13_1" index="1" speed="13.89" length="20.80" shape="89.60,-1.60 110.40,-1.60"/>
    </edge>
    <edge id=":16_15" function="internal">
        <lane id=":16_15_0" index="0" speed="9.26" length="19.35" shape="89.60,-1.60 94.85,-0.85 98.60,1.40 100.85,5.15 101.60,10.40"/>
    </edge>
    <edge id=":17_0" function="internal">
        <lane id=":17_0_0" index="0" speed="6.51" length="9.03" shape="195.20,10.40 194.85,7.95 193.80,6.20 192.05,5.15 189.60,4.80"/>
    </edge>
    <edge id=":17_1" function="internal">
        <lane id=":17_1_0" index="0" speed="13.89" length="20.80" shape="195.20,10.40 195.20,-10.40"/>
        <lane id=":17_1_1" index="1" speed="13.89" length="20.80" shape="198.40,10.40 198.40,-10.40"/>
    </edge>
    <edge id=":17_3" function="internal">
        <lane id=":17_3_0" index="0" speed="9.26" length="6.96" shape="198.40,10.40 199.15,5.15 200.00,3.73"/>
    </edge>
    <edge id=":17_16" function="internal">
        <lane id=":17_16_0" index="0" speed="9.26" length="12.40" shape="200.00,3.73 201.40,1.40 205.15,-0.85 210.40,-1.60"/>
    </edge>
    <edge id=":17_4" function="internal">
        <lane id=":17_4_0" index="0" speed="6.51" length="9.03" shape="210.40,4.80 207.95,5.15 206.20,6.20 205.15,7.95 204.80,10.40"/>
    </edge>
    <edge id=":17_5" function="internal">
        <lane id=":17_5_0" index="0" speed="13.89" length="20.80" shape="210.40,4.80 189.60,4.80"/>
        <lane id=":17_5_1" index="1" speed="13.89" length="20.80" shape="210.40,1.60 189.60,1.60"/>
    </edge>
    <edge id=":17_7" function="internal">
        <lane id=":17_7_0" index="0" speed="9.26" length="19.35" shape="210.40,1.60 205.15,0.85 201.40,-1.40 199.15,-5.15 198.40,-10.40"/>
    </edge>
    <edge id=":17_8" function="internal">
        <lane id=":17_8_0" index="0" speed="6.51" length="9.03" shape="204.80,-10.40 205.15,-7.95 206.20,-6.20 207.95,-5.15 210.40,-4.80"/>
    </edge>
    <edge id=":17_9" function="internal">
        <lane id=":17_9_0" index="0" speed="13.89" length="20.80" shape="204.80,-10.40 204.80,10.40"/>
        <lane id=":17_9_1" index="1" speed="13.89" length="20.80" shape="201.60,-10.40 201.60,10.40"/>
    </edge>
    <edge id=":17_11" function="internal">
        <lane id=":17_11_0" index="0" speed="9.26" length="6.96" shape="201.60,-10.40 200.85,-5.15 200.00,-3.73"/>
    </edge>
    <edge id=":17_17" function="internal">
        <lane id=":17_17_0" index="0" speed="9.26" length="12.40" shape="200.00,-3.73 198.60,-1.40 194.85,0.85 189.60,1.60"/>
    </edge>
    <edge id=":17_12" function="internal">
        <lane id=":17_12_0" index="0" speed="6.51" length="9.03" shape="189.60,-4.80 192.05,-5.15 193.80,-6.20 194.85,-7.95 195.20,-10.40"/>
    </edge>
    <edge id=":17_13" function="internal">
        <lane id=":17_13_0" index="0" speed="13.89" length="20.80" shape="189.60,-4.80 210.40,-4.80"/>
        <lane id=":17_13_1" index="1" speed="13.89" length="20.80" shape="189.60,-1.60 210.40,-1.60"/>
    </edge>
    <edge id=":17_15" function="internal">
        <lane id=":17_15_0" index="0" speed="9.26" length="19.35" shape="189.60,-1.60 194.85,-0.85 198.60,1.40 200.85,5.15 201.60,10.40"/>
    </edge>
    <edge id=":18_0" function="internal">
        <lane id=":18_0_0" index="0" speed="6.51" length="9.03" shape="295.20,10.40 294.85,7.95 293.80,6.20 292.05,5.15 289.60,4.80"/>
    </edge>
    <edge id=":18_1" function="internal">
        <lane id=":18_1_0" index="0" speed="13.89" length="20.80" shape="295.20,10.40 295.20,-10.40"/>
        <lane id=":18_1_1" index="1" speed="13.89" length="20.80" shape="298.40,10.40 298.40,-10.40"/>
    </edge>
    <edge id=":18_3" function="internal">
        <lane id=":18_3_0" index="0" speed="9.26" length="6.96" shape="298.40,10.40 299.15,5.15 300.00,3.73"/>
    </edge>
    <edge id=":18_16" function="internal">
        <lane id=":18_16_0" index="0" speed="9.26" length="12.40" shape="300.00,3.73 301.40,1.40 305.15,-0.85 310.40,-1.60"/>
    </edge>
    <edge id=":18_4" function="internal">
        <lane id=":18_4_0" index="0" speed="6.51" length="9.03" shape="310.40,4.80 307.95,5.15 306.20,6.20 305.15,7.95 304.80,10.40"/>
    </edge>
    <edge id=":18_5" function="internal">
        <lane id=":18_5_0" index="0" speed="13.89" length="20.80" shape="310.40,4.80 289.60,4.80"/>
        <lane id=":18_5_1" index="1" speed="13.89" length="20.80" shape="310.40,1.60 289.60,1.60"/>
    </edge>
    <edge id=":18_7" function="internal">
        <lane id=":18_7_0" index="0" speed="9.26" length="19.35" shape="310.40,1.60 305.15,0.85 301.40,-1.40 299.15,-5.15 298.40,-10.40"/>
    </edge>
    <edge id=":18_8" function="internal">
        <lane id=":18_8_0" index="0" speed="6.51" length="9.03" shape="304.80,-10.40 305.15,-7.95 306.20,-6.20 307.95,-5.15 310.40,-4.80"/>
    </edge>
    <edge id=":18_9" function="internal">
        <lane id=":18_9_0" index="0" speed="13.89" length="20.80" shape="304.80,-10.40 304.80,10.40"/>
        <lane id=":18_9_1" index="1" speed="13.89" length="20.80" shape="301.60,-10.40 301.60,10.40"/>
    </edge>
    <edge id=":18_11" function="internal">
        <lane id=":18_11_0" index="0" speed="9.26" length="6.96" shape="301.60,-10.40 300.85,-5.15 300.00,-3.73"/>
    </edge>
    <edge id=":18_17" function="internal">
        <lane id=":18_17_0" index="0" speed="9.26" length="12.40" shape="300.00,-3.73 298.60,-1.40 294.85,0.85 289.60,1.60"/>
    </edge>
    <edge id=":18_12" function="internal">
        <lane id=":18_12_0" index="0" speed="6.51" length="9.03" shape="289.60,-4.80 292.05,-5.15 293.80,-6.20 294.85,-7.95 295.20,-10.40"/>
    </edge>
    <edge id=":18_13" function="internal">
        <lane id=":18_13_0" index="0" speed="13.89" length="20.80" shape="289.60,-4.80 310.40,-4.80"/>
        <lane id=":18_13_1" index="1" speed="13.89" length="20.80" shape="289.60,-1.60 310.40,-1.60"/>
    </edge>
    <edge id=":18_15" function="internal">
        <lane id=":18_15_0" index="0" speed="9.26" length="19.35" shape="289.60,-1.60 294.85,-0.85 298.60,1.40 300.85,5.15 301.60,10.40"/>
    </edge>
    <edge id=":19_0" function="internal">
        <lane id=":19_0_0" index="0" speed="6.51" length="9.03" shape="395.20,10.40 394.85,7.95 393.80,6.20 392.05,5.15 389.60,4.80"/>
    </edge>
    <edge id=":19_1" function="internal">
        <lane id=":19_1_0" index="0" speed="13.89" length="20.80" shape="395.20,10.40 395.20,-10.40"/>
        <lane id=":19_1_1" index="1" speed="13.89" length="20.80" shape="398.40,10.40 398.40,-10.40"/>
    </edge>
    <edge id=":19_3" function="internal">
        <lane id=":19_3_0" index="0" speed="13.89" length="20.80" shape="404.80,-10.40 404.80,10.40"/>
        <lane id=":19_3_1" index="1" speed="13.89" length="20.80" shape="401.60,-10.40 401.60,10.40"/>
    </edge>
    <edge id=":19_5" function="internal">
        <lane id=":19_5_0" index="0" speed="9.26" length="6.96" shape="401.60,-10.40 400.85,-5.15 400.00,-3.73"/>
    </edge>
    <edge id=":19_8" function="internal">
        <lane id=":19_8_0" index="0" speed="9.26" length="12.40" shape="400.00,-3.73 398.60,-1.40 394.85,0.85 389.60,1.60"/>
    </edge>
    <edge id=":19_6" function="internal">
        <lane id=":19_6_0" index="0" speed="6.51" length="9.03" shape="389.60,-4.80 392.05,-5.15 393.80,-6.20 394.85,-7.95 395.20,-10.40"/>
    </edge>
    <edge id=":19_7" function="internal">
        <lane id=":19_7_0" index="0" speed="9.26" length="19.35" shape="389.60,-1.60 394.85,-0.85 398.60,1.40 400.85,5.15 401.60,10.40"/>
    </edge>
    <edge id=":2_0" function="internal">
        <lane id=":2_0_0" index="0" speed="6.51" length="9.03" shape="195.20,-389.60 194.85,-392.05 193.80,-393.80 192.05,-394.85 189.60,-395.20"/>
    </edge>
    <edge id=":2_1" function="internal">
        <lane id=":2_1_0" index="0" speed="9.26" length="19.35" shape="198.40,-389.60 199.15,-394.85 201.40,-398.60 205.15,-400.85 210.40,-401.60"/>
    </edge>
    <edge id=":2_2" function="internal">
        <lane id=":2_2_0" index="0" speed="6.51" length="9.03" shape="210.40,-395.20 207.95,-394.85 206.20,-393.80 205.15,-392.05 204.80,-389.60"/>
    </edge>
    <edge id=":2_3" function="internal">
        <lane id=":2_3_0" index="0" speed="13.89" length="20.80" shape="210.40,-395.20 189.60,-395.20"/>
        <lane id=":2_3_1" index="1" speed="13.89" length="20.80" shape="210.40,-398.40 189.60,-398.40"/>
    </edge>
    <edge id=":2_5" function="internal">
        <lane id=":2_5_0" index="0" speed="13.89" length="20.80" shape="189.60,-404.80 210.40,-404.80"/>
        <lane id=":2_5_1" index="1" speed="13.89" length="20.80" shape="189.60,-401.60 210.40,-401.60"/>
    </edge>
    <edge id=":2_7" function="internal">
        <lane id=":2_7_0" index="0" speed="9.26" length="6.96" shape="189.60,-401.60 194.85,-400.85 196.27,-400.00"/>
    </edge>
    <edge id=":2_8" function="internal">
        <lane id=":2_8_0" index="0" speed="9.26" length="12.40" shape="196.27,-400.00 198.60,-398.60 200.85,-394.85 201.60,-389.60"/>
    </edge>
    <edge id=":20_0" function="internal">
        <lane id=":20_0_0" index="0" speed="8.96" length="18.06" shape="-93.60,104.80 -98.50,104.10 -102.00,102.00 -104.10,98.50 -104.80,93.60"/>
    </edge>
    <edge id=":20_1" function="internal">
        <lane id=":20_1_0" index="0" speed="7.66" length="12.90" shape="-93.60,101.60 -97.10,101.10 -99.60,99.60 -101.10,97.10 -101.60,93.60"/>
    </edge>
    <edge id=":20_2" function="internal">
        <lane id=":20_2_0" index="0" speed="3.90" length="2.58" shape="-95.20,93.60 -95.10,94.30 -94.80,94.80 -94.30,95.10 -93.60,95.20"/>
    </edge>
    <edge id=":20_3" function="internal">
        <lane id=":20_3_0" index="0" speed="6.08" length="7.74" shape="-98.40,93.60 -98.10,95.70 -97.20,97.20 -95.70,98.10 -93.60,98.40"/>
    </edge>
    <edge id=":21_0" function="internal">
        <lane id=":21_0_0" index="0" speed="13.89" length="20.80" shape="110.40,104.80 89.60,104.80"/>
        <lane id=":21_0_1" index="1" speed="13.89" length="20.80" shape="110.40,101.60 89.60,101.60"/>
    </edge>
    <edge id=":21_2" function="internal">
        <lane id=":21_2_0" index="0" speed="9.26" length="6.96" shape="110.40,101.60 105.15,100.85 103.73,100.00"/>