<?xml version="1.0" encoding="UTF-8"?>

<!-- generated on Friday 04 September 2020 03:13:44 PM IST by Eclipse SUMO netedit Version 1.6.0
<configuration xmlns:xsi="http://www.w3.org/2001/XMLSchema-instance" xsi:noNamespaceSchemaLocation="http://sumo.dlr.de/xsd/netconvertConfiguration.xsd">

    <input>
        <sumo-net-file value="/home/vishwajeet/Documents/pro..s/Prof/dl/Code/first/first.net.xml"/>
    </input>

    <output>
        <output-file value="/home/vishwajeet/Documents/pro..s/Prof/dl/Code/first/first.net.xml"/>
        <plain-output-prefix value="/home/vishwajeet/Documents/pro..s/Prof/dl/Code/first/first"/>
    </output>

    <processing>
        <geometry.min-radius.fix.railways value="false"/>
        <geometry.max-grade.fix value="false"/>
        <offset.disable-normalization value="true"/>
        <lefthand value="false"/>
    </processing>

    <junctions>
        <no-turnarounds value="true"/>
        <junctions.corner-detail value="5"/>
        <junctions.limit-turn-speed value="5.5"/>
        <rectangular-lane-cut value="false"/>
    </junctions>

    <pedestrian>
        <walkingareas value="false"/>
    </pedestrian>

    <report>
        <aggregate-warnings value="5"/>
    </report>

</configuration>
-->

<tlLogics version="1.6" xmlns:xsi="http://www.w3.org/2001/XMLSchema-instance" xsi:noNamespaceSchemaLocation="http://sumo.dlr.de/xsd/tllogic_file.xsd">
</tlLogics>
