<?xml version="1.0" encoding="UTF-8"?>

<!-- generated on Thu 11 Mar 2021 04:59:06 PM IST by Eclipse SUMO netedit Version 1.8.0
<configuration xmlns:xsi="http://www.w3.org/2001/XMLSchema-instance" xsi:noNamespaceSchemaLocation="http://sumo.dlr.de/xsd/netconvertConfiguration.xsd">

    <input>
        <sumo-net-file value="/home/dikshant/github/pat_code/maps/grid_5_5_final.net.xml"/>
    </input>

    <output>
        <output-file value="/home/dikshant/github/pat_code/maps/grid_5_5_final.net.xml"/>
        <plain-output-prefix value="/home/dikshant/github/pat_code/maps/grid_5_5_final.net.xml"/>
    </output>

    <processing>
        <geometry.min-radius.fix.railways value="false"/>
        <geometry.max-grade.fix value="false"/>
        <offset.disable-normalization value="true"/>
        <lefthand value="false"/>
    </processing>

    <junctions>
        <no-turnarounds value="true"/>
        <junctions.corner-detail value="5"/>
        <junctions.limit-turn-speed value="5.5"/>
        <rectangular-lane-cut value="false"/>
    </junctions>

    <pedestrian>
        <walkingareas value="false"/>
    </pedestrian>

    <report>
        <aggregate-warnings value="5"/>
    </report>

</configuration>
-->

<connections version="1.6" xmlns:xsi="http://www.w3.org/2001/XMLSchema-instance" xsi:noNamespaceSchemaLocation="http://sumo.dlr.de/xsd/connections_file.xsd">
    <connection from="0to1" to="1to2" fromLane="0" toLane="0"/>
    <connection from="0to1" to="1to6" fromLane="0" toLane="0"/>
    <connection from="0to1" to="1to0" fromLane="0" toLane="0"/>
    <connection from="0to1" to="1to2" fromLane="1" toLane="1"/>
    <connection from="0to1" to="1to6" fromLane="1" toLane="1"/>
    <connection from="0to1" to="1to0" fromLane="1" toLane="1"/>

    <connection from="0to5" to="5to6" fromLane="0" toLane="0"/>
    <connection from="0to5" to="5to10" fromLane="0" toLane="0"/>
    <connection from="0to5" to="5to0" fromLane="0" toLane="0"/>
    <connection from="0to5" to="5to6" fromLane="1" toLane="1"/>
    <connection from="0to5" to="5to10" fromLane="1" toLane="1"/>
    <connection from="0to5" to="5to0" fromLane="1" toLane="1"/>

    <connection from="10to11" to="11to6" fromLane="0" toLane="0"/>
    <connection from="10to11" to="11to12" fromLane="0" toLane="0"/>
    <connection from="10to11" to="11to16" fromLane="0" toLane="0"/>
    <connection from="10to11" to="11to10" fromLane="0" toLane="0"/>
    <connection from="10to11" to="11to6" fromLane="1" toLane="1"/>
    <connection from="10to11" to="11to12" fromLane="1" toLane="1"/>
    <connection from="10to11" to="11to16" fromLane="1" toLane="1"/>
    <connection from="10to11" to="11to10" fromLane="1" toLane="1"/>

    <connection from="10to15" to="15to16" fromLane="0" toLane="0"/>
    <connection from="10to15" to="15to20" fromLane="0" toLane="0"/>
    <connection from="10to15" to="15to10" fromLane="0" toLane="0"/>
    <connection from="10to15" to="15to16" fromLane="1" toLane="1"/>
    <connection from="10to15" to="15to20" fromLane="1" toLane="1"/>
    <connection from="10to15" to="15to10" fromLane="1" toLane="1"/>

    <connection from="10to5" to="5to0" fromLane="0" toLane="0"/>
    <connection from="10to5" to="5to6" fromLane="0" toLane="0"/>
    <connection from="10to5" to="5to10" fromLane="0" toLane="0"/>
    <connection from="10to5" to="5to0" fromLane="1" toLane="1"/>
    <connection from="10to5" to="5to6" fromLane="1" toLane="1"/>
    <connection from="10to5" to="5to10" fromLane="1" toLane="1"/>

    <connection from="11to10" to="10to15" fromLane="0" toLane="0"/>
    <connection from="11to10" to="10to5" fromLane="0" toLane="0"/>
    <connection from="11to10" to="10to11" fromLane="0" toLane="0"/>
    <connection from="11to10" to="10to15" fromLane="1" toLane="1"/>
    <connection from="11to10" to="10to5" fromLane="1" toLane="1"/>
    <connection from="11to10" to="10to11" fromLane="1" toLane="1"/>

    <connection from="11to12" to="12to7" fromLane="0" toLane="0"/>
    <connection from="11to12" to="12to13" fromLane="0" toLane="0"/>
    <connection from="11to12" to="12to17" fromLane="0" toLane="0"/>
    <connection from="11to12" to="12to11" fromLane="0" toLane="0"/>
    <connection from="11to12" to="12to7" fromLane="1" toLane="1"/>
    <connection from="11to12" to="12to13" fromLane="1" toLane="1"/>
    <connection from="11to12" to="12to17" fromLane="1" toLane="1"/>
    <connection from="11to12" to="12to11" fromLane="1" toLane="1"/>

    <connection from="11to16" to="16to17" fromLane="0" toLane="0"/>
    <connection from="11to16" to="16to21" fromLane="0" toLane="0"/>
    <connection from="11to16" to="16to15" fromLane="0" toLane="0"/>
    <connection from="11to16" to="16to11" fromLane="0" toLane="0"/>
    <connection from="11to16" to="16to17" fromLane="1" toLane="1"/>
    <connection from="11to16" to="16to21" fromLane="1" toLane="1"/>
    <connection from="11to16" to="16to15" fromLane="1" toLane="1"/>
    <connection from="11to16" to="16to11" fromLane="1" toLane="1"/>

    <connection from="11to6" to="6to5" fromLane="0" toLane="0"/>
    <connection from="11to6" to="6to1" fromLane="0" toLane="0"/>
    <connection from="11to6" to="6to7" fromLane="0" toLane="0"/>
    <connection from="11to6" to="6to11" fromLane="0" toLane="0"/>
    <connection from="11to6" to="6to5" fromLane="1" toLane="1"/>
    <connection from="11to6" to="6to1" fromLane="1" toLane="1"/>
    <connection from="11to6" to="6to7" fromLane="1" toLane="1"/>
    <connection from="11to6" to="6to11" fromLane="1" toLane="1"/>

    <connection from="12to11" to="11to16" fromLane="0" toLane="0"/>
    <connection from="12to11" to="11to10" fromLane="0" toLane="0"/>
    <connection from="12to11" to="11to6" fromLane="0" toLane="0"/>
    <connection from="12to11" to="11to12" fromLane="0" toLane="0"/>
    <connection from="12to11" to="11to16" fromLane="1" toLane="1"/>
    <connection from="12to11" to="11to10" fromLane="1" toLane="1"/>
    <connection from="12to11" to="11to6" fromLane="1" toLane="1"/>
    <connection from="12to11" to="11to12" fromLane="1" toLane="1"/>

    <connection from="12to13" to="13to8" fromLane="0" toLane="0"/>
    <connection from="12to13" to="13to14" fromLane="0" toLane="0"/>
    <connection from="12to13" to="13to18" fromLane="0" toLane="0"/>
    <connection from="12to13" to="13to12" fromLane="0" toLane="0"/>
    <connection from="12to13" to="13to8" fromLane="1" toLane="1"/>
    <connection from="12to13" to="13to14" fromLane="1" toLane="1"/>
    <connection from="12to13" to="13to18" fromLane="1" toLane="1"/>
    <connection from="12to13" to="13to12" fromLane="1" toLane="1"/>

    <connection from="12to17" to="17to18" fromLane="0" toLane="0"/>
    <connection from="12to17" to="17to22" fromLane="0" toLane="0"/>
    <connection from="12to17" to="17to16" fromLane="0" toLane="0"/>
    <connection from="12to17" to="17to12" fromLane="0" toLane="0"/>
    <connection from="12to17" to="17to18" fromLane="1" toLane="1"/>
    <connection from="12to17" to="17to22" fromLane="1" toLane="1"/>
    <connection from="12to17" to="17to16" fromLane="1" toLane="1"/>
    <connection from="12to17" to="17to12" fromLane="1" toLane="1"/>

    <connection from="12to7" to="7to6" fromLane="0" toLane="0"/>
    <connection from="12to7" to="7to2" fromLane="0" toLane="0"/>
    <connection from="12to7" to="7to8" fromLane="0" toLane="0"/>
    <connection from="12to7" to="7to12" fromLane="0" toLane="0"/>
    <connection from="12to7" to="7to6" fromLane="1" toLane="1"/>
    <connection from="12to7" to="7to2" fromLane="1" toLane="1"/>
    <connection from="12to7" to="7to8" fromLane="1" toLane="1"/>
    <connection from="12to7" to="7to12" fromLane="1" toLane="1"/>

    <connection from="13to12" to="12to17" fromLane="0" toLane="0"/>
    <connection from="13to12" to="12to11" fromLane="0" toLane="0"/>
    <connection from="13to12" to="12to7" fromLane="0" toLane="0"/>
    <connection from="13to12" to="12to13" fromLane="0" toLane="0"/>
    <connection from="13to12" to="12to17" fromLane="1" toLane="1"/>
    <connection from="13to12" to="12to11" fromLane="1" toLane="1"/>
    <connection from="13to12" to="12to7" fromLane="1" toLane="1"/>
    <connection from="13to12" to="12to13" fromLane="1" toLane="1"/>

    <connection from="13to14" to="14to9" fromLane="0" toLane="0"/>
    <connection from="13to14" to="14to19" fromLane="0" toLane="0"/>
    <connection from="13to14" to="14to13" fromLane="0" toLane="0"/>
    <connection from="13to14" to="14to9" fromLane="1" toLane="1"/>
    <connection from="13to14" to="14to19" fromLane="1" toLane="1"/>
    <connection from="13to14" to="14to13" fromLane="1" toLane="1"/>

    <connection from="13to18" to="18to19" fromLane="0" toLane="0"/>
    <connection from="13to18" to="18to23" fromLane="0" toLane="0"/>
    <connection from="13to18" to="18to17" fromLane="0" toLane="0"/>
    <connection from="13to18" to="18to13" fromLane="0" toLane="0"/>
    <connection from="13to18" to="18to19" fromLane="1" toLane="1"/>
    <connection from="13to18" to="18to23" fromLane="1" toLane="1"/>
    <connection from="13to18" to="18to17" fromLane="1" toLane="1"/>
    <connection from="13to18" to="18to13" fromLane="1" toLane="1"/>

    <connection from="13to8" to="8to7" fromLane="0" toLane="0"/>
    <connection from="13to8" to="8to3" fromLane="0" toLane="0"/>
    <connection from="13to8" to="8to9" fromLane="0" toLane="0"/>
    <connection from="13to8" to="8to13" fromLane="0" toLane="0"/>
    <connection from="13to8" to="8to7" fromLane="1" toLane="1"/>
    <connection from="13to8" to="8to3" fromLane="1" toLane="1"/>
    <connection from="13to8" to="8to9" fromLane="1" toLane="1"/>
    <connection from="13to8" to="8to13" fromLane="1" toLane="1"/>

    <connection from="14to13" to="13to18" fromLane="0" toLane="0"/>
    <connection from="14to13" to="13to12" fromLane="0" toLane="0"/>
    <connection from="14to13" to="13to8" fromLane="0" toLane="0"/>
    <connection from="14to13" to="13to14" fromLane="0" toLane="0"/>
    <connection from="14to13" to="13to18" fromLane="1" toLane="1"/>
    <connection from="14to13" to="13to12" fromLane="1" toLane="1"/>
    <connection from="14to13" to="13to8" fromLane="1" toLane="1"/>
    <connection from="14to13" to="13to14" fromLane="1" toLane="1"/>

    <connection from="14to19" to="19to24" fromLane="0" toLane="0"/>
    <connection from="14to19" to="19to18" fromLane="0" toLane="0"/>
    <connection from="14to19" to="19to14" fromLane="0" toLane="0"/>
    <connection from="14to19" to="19to24" fromLane="1" toLane="1"/>
    <connection from="14to19" to="19to18" fromLane="1" toLane="1"/>
    <connection from="14to19" to="19to14" fromLane="1" toLane="1"/>

    <connection from="14to9" to="9to8" fromLane="0" toLane="0"/>
    <connection from="14to9" to="9to4" fromLane="0" toLane="0"/>
    <connection from="14to9" to="9to14" fromLane="0" toLane="0"/>
    <connection from="14to9" to="9to8" fromLane="1" toLane="1"/>
    <connection from="14to9" to="9to4" fromLane="1" toLane="1"/>
    <connection from="14to9" to="9to14" fromLane="1" toLane="1"/>

    <connection from="15to10" to="10to5" fromLane="0" toLane="0"/>
    <connection from="15to10" to="10to11" fromLane="0" toLane="0"/>
    <connection from="15to10" to="10to15" fromLane="0" toLane="0"/>
    <connection from="15to10" to="10to5" fromLane="1" toLane="1"/>
    <connection from="15to10" to="10to11" fromLane="1" toLane="1"/>
    <connection from="15to10" to="10to15" fromLane="1" toLane="1"/>

    <connection from="15to16" to="16to11" fromLane="0" toLane="0"/>
    <connection from="15to16" to="16to17" fromLane="0" toLane="0"/>
    <connection from="15to16" to="16to21" fromLane="0" toLane="0"/>
    <connection from="15to16" to="16to15" fromLane="0" toLane="0"/>
    <connection from="15to16" to="16to11" fromLane="1" toLane="1"/>
    <connection from="15to16" to="16to17" fromLane="1" toLane="1"/>
    <connection from="15to16" to="16to21" fromLane="1" toLane="1"/>
    <connection from="15to16" to="16to15" fromLane="1" toLane="1"/>

    <connection from="15to20" to="20to21" fromLane="0" toLane="0"/>
    <connection from="15to20" to="20to15" fromLane="0" toLane="0"/>
    <connection from="15to20" to="20to21" fromLane="1" toLane="1"/>
    <connection from="15to20" to="20to15" fromLane="1" toLane="1"/>

    <connection from="16to11" to="11to10" fromLane="0" toLane="0"/>
    <connection from="16to11" to="11to6" fromLane="0" toLane="0"/>
    <connection from="16to11" to="11to12" fromLane="0" toLane="0"/>
    <connection from="16to11" to="11to16" fromLane="0" toLane="0"/>
    <connection from="16to11" to="11to10" fromLane="1" toLane="1"/>
    <connection from="16to11" to="11to6" fromLane="1" toLane="1"/>
    <connection from="16to11" to="11to12" fromLane="1" toLane="1"/>
    <connection from="16to11" to="11to16" fromLane="1" toLane="1"/>

    <connection from="16to15" to="15to20" fromLane="0" toLane="0"/>
    <connection from="16to15" to="15to10" fromLane="0" toLane="0"/>
    <connection from="16to15" to="15to16" fromLane="0" toLane="0"/>
    <connection from="16to15" to="15to20" fromLane="1" toLane="1"/>
    <connection from="16to15" to="15to10" fromLane="1" toLane="1"/>
    <connection from="16to15" to="15to16" fromLane="1" toLane="1"/>

    <connection from="16to17" to="17to12" fromLane="0" toLane="0"/>
    <connection from="16to17" to="17to18" fromLane="0" toLane="0"/>
    <connection from="16to17" to="17to22" fromLane="0" toLane="0"/>
    <connection from="16to17" to="17to16" fromLane="0" toLane="0"/>
    <connection from="16to17" to="17to12" fromLane="1" toLane="1"/>
    <connection from="16to17" to="17to18" fromLane="1" toLane="1"/>
    <connection from="16to17" to="17to22" fromLane="1" toLane="1"/>
    <connection from="16to17" to="17to16" fromLane="1" toLane="1"/>

    <connection from="16to21" to="21to22" fromLane="0" toLane="0"/>
    <connection from="16to21" to="21to20" fromLane="0" toLane="0"/>
    <connection from="16to21" to="21to16" fromLane="0" toLane="0"/>
    <connection from="16to21" to="21to22" fromLane="1" toLane="1"/>
    <connection from="16to21" to="21to20" fromLane="1" toLane="1"/>
    <connection from="16to21" to="21to16" fromLane="1" toLane="1"/>

    <connection from="17to12" to="12to11" fromLane="0" toLane="0"/>
    <connection from="17to12" to="12to7" fromLane="0" toLane="0"/>
    <connection from="17to12" to="12to13" fromLane="0" toLane="0"/>
    <connection from="17to12" to="12to17" fromLane="0" toLane="0"/>
    <connection from="17to12" to="12to11" fromLane="1" toLane="1"/>
    <connection from="17to12" to="12to7" fromLane="1" toLane="1"/>
    <connection from="17to12" to="12to13" fromLane="1" toLane="1"/>
    <connection from="17to12" to="12to17" fromLane="1" toLane="1"/>

    <connection from="17to16" to="16to21" fromLane="0" toLane="0"/>
    <connection from="17to16" to="16to15" fromLane="0" toLane="0"/>
    <connection from="17to16" to="16to11" fromLane="0" toLane="0"/>
    <connection from="17to16" to="16to17" fromLane="0" toLane="0"/>
    <connection from="17to16" to="16to21" fromLane="1" toLane="1"/>
    <connection from="17to16" to="16to15" fromLane="1" toLane="1"/>
    <connection from="17to16" to="16to11" fromLane="1" toLane="1"/>
    <connection from="17to16" to="16to17" fromLane="1" toLane="1"/>

    <connection from="17to18" to="18to13" fromLane="0" toLane="0"/>
    <connection from="17to18" to="18to19" fromLane="0" toLane="0"/>
    <connection from="17to18" to="18to23" fromLane="0" toLane="0"/>
    <connection from="17to18" to="18to17" fromLane="0" toLane="0"/>
    <connection from="17to18" to="18to13" fromLane="1" toLane="1"/>
    <connection from="17to18" to="18to19" fromLane="1" toLane="1"/>
    <connection from="17to18" to="18to23" fromLane="1" toLane="1"/>
    <connection from="17to18" to="18to17" fromLane="1" toLane="1"/>

    <connection from="17to22" to="22to23" fromLane="0" toLane="0"/>
    <connection from="17to22" to="22to21" fromLane="0" toLane="0"/>
    <connection from="17to22" to="22to17" fromLane="0" toLane="0"/>
    <connection from="17to22" to="22to23" fromLane="1" toLane="1"/>
    <connection from="17to22" to="22to21" fromLane="1" toLane="1"/>
    <connection from="17to22" to="22to17" fromLane="1" toLane="1"/>

    <connection from="18to13" to="13to12" fromLane="0" toLane="0"/>
    <connection from="18to13" to="13to8" fromLane="0" toLane="0"/>
    <connection from="18to13" to="13to14" fromLane="0" toLane="0"/>
    <connection from="18to13" to="13to18" fromLane="0" toLane="0"/>
    <connection from="18to13" to="13to12" fromLane="1" toLane="1"/>
    <connection from="18to13" to="13to8" fromLane="1" toLane="1"/>
    <connection from="18to13" to="13to14" fromLane="1" toLane="1"/>
    <connection from="18to13" to="13to18" fromLane="1" toLane="1"/>

    <connection from="18to17" to="17to22" fromLane="0" toLane="0"/>
    <connection from="18to17" to="17to16" fromLane="0" toLane="0"/>
    <connection from="18to17" to="17to12" fromLane="0" toLane="0"/>
    <connection from="18to17" to="17to18" fromLane="0" toLane="0"/>
    <connection from="18to17" to="17to22" fromLane="1" toLane="1"/>
    <connection from="18to17" to="17to16" fromLane="1" toLane="1"/>
    <connection from="18to17" to="17to12" fromLane="1" toLane="1"/>
    <connection from="18to17" to="17to18" fromLane="1" toLane="1"/>

    <connection from="18to19" to="19to14" fromLane="0" toLane="0"/>
    <connection from="18to19" to="19to24" fromLane="0" toLane="0"/>
    <connection from="18to19" to="19to18" fromLane="0" toLane="0"/>
    <connection from="18to19" to="19to14" fromLane="1" toLane="1"/>
    <connection from="18to19" to="19to24" fromLane="1" toLane="1"/>
    <connection from="18to19" to="19to18" fromLane="1" toLane="1"/>

    <connection from="18to23" to="23to24" fromLane="0" toLane="0"/>
    <connection from="18to23" to="23to22" fromLane="0" toLane="0"/>
    <connection from="18to23" to="23to18" fromLane="0" toLane="0"/>
    <connection from="18to23" to="23to24" fromLane="1" toLane="1"/>
    <connection from="18to23" to="23to22" fromLane="1" toLane="1"/>
    <connection from="18to23" to="23to18" fromLane="1" toLane="1"/>

    <connection from="19to14" to="14to13" fromLane="0" toLane="0"/>
    <connection from="19to14" to="14to9" fromLane="0" toLane="0"/>
    <connection from="19to14" to="14to19" fromLane="0" toLane="0"/>
    <connection from="19to14" to="14to13" fromLane="1" toLane="1"/>
    <connection from="19to14" to="14to9" fromLane="1" toLane="1"/>
    <connection from="19to14" to="14to19" fromLane="1" toLane="1"/>

    <connection from="19to18" to="18to23" fromLane="0" toLane="0"/>
    <connection from="19to18" to="18to17" fromLane="0" toLane="0"/>
    <connection from="19to18" to="18to13" fromLane="0" toLane="0"/>
    <connection from="19to18" to="18to19" fromLane="0" toLane="0"/>
    <connection from="19to18" to="18to23" fromLane="1" toLane="1"/>
    <connection from="19to18" to="18to17" fromLane="1" toLane="1"/>
    <connection from="19to18" to="18to13" fromLane="1" toLane="1"/>
    <connection from="19to18" to="18to19" fromLane="1" toLane="1"/>

    <connection from="19to24" to="24to23" fromLane="0" toLane="0"/>
    <connection from="19to24" to="24to19" fromLane="0" toLane="0"/>
    <connection from="19to24" to="24to23" fromLane="1" toLane="1"/>
    <connection from="19to24" to="24to19" fromLane="1" toLane="1"/>

    <connection from="1to0" to="0to5" fromLane="0" toLane="0"/>
    <connection from="1to0" to="0to1" fromLane="0" toLane="0"/>
    <connection from="1to0" to="0to5" fromLane="1" toLane="1"/>
    <connection from="1to0" to="0to1" fromLane="1" toLane="1"/>

    <connection from="1to2" to="2to3" fromLane="0" toLane="0"/>
    <connection from="1to2" to="2to7" fromLane="0" toLane="0"/>
    <connection from="1to2" to="2to1" fromLane="0" toLane="0"/>
    <connection from="1to2" to="2to3" fromLane="1" toLane="1"/>
    <connection from="1to2" to="2to7" fromLane="1" toLane="1"/>
    <connection from="1to2" to="2to1" fromLane="1" toLane="1"/>

    <connection from="1to6" to="6to7" fromLane="0" toLane="0"/>
    <connection from="1to6" to="6to11" fromLane="0" toLane="0"/>
    <connection from="1to6" to="6to5" fromLane="0" toLane="0"/>
    <connection from="1to6" to="6to1" fromLane="0" toLane="0"/>
    <connection from="1to6" to="6to7" fromLane="1" toLane="1"/>
    <connection from="1to6" to="6to11" fromLane="1" toLane="1"/>
    <connection from="1to6" to="6to5" fromLane="1" toLane="1"/>
    <connection from="1to6" to="6to1" fromLane="1" toLane="1"/>

    <connection from="20to15" to="15to10" fromLane="0" toLane="0"/>
    <connection from="20to15" to="15to16" fromLane="0" toLane="0"/>
    <connection from="20to15" to="15to20" fromLane="0" toLane="0"/>
    <connection from="20to15" to="15to10" fromLane="1" toLane="1"/>
    <connection from="20to15" to="15to16" fromLane="1" toLane="1"/>
    <connection from="20to15" to="15to20" fromLane="1" toLane="1"/>

    <connection from="20to21" to="21to16" fromLane="0" toLane="0"/>
    <connection from="20to21" to="21to22" fromLane="0" toLane="0"/>
    <connection from="20to21" to="21to20" fromLane="0" toLane="0"/>
    <connection from="20to21" to="21to16" fromLane="1" toLane="1"/>
    <connection from="20to21" to="21to22" fromLane="1" toLane="1"/>
    <connection from="20to21" to="21to20" fromLane="1" toLane="1"/>

    <connection from="21to16" to="16to15" fromLane="0" toLane="0"/>
    <connection from="21to16" to="16to11" fromLane="0" toLane="0"/>
    <connection from="21to16" to="16to17" fromLane="0" toLane="0"/>
    <connection from="21to16" to="16to21" fromLane="0" toLane="0"/>
    <connection from="21to16" to="16to15" fromLane="1" toLane="1"/>
    <connection from="21to16" to="16to11" fromLane="1" toLane="1"/>
    <connection from="21to16" to="16to17" fromLane="1" toLane="1"/>
    <connection from="21to16" to="16to21" fromLane="1" toLane="1"/>

    <connection from="21to20" to="20to15" fromLane="0" toLane="0"/>
    <connection from="21to20" to="20to21" fromLane="0" toLane="0"/>
    <connection from="21to20" to="20to15" fromLane="1" toLane="1"/>
    <connection from="21to20" to="20to21" fromLane="1" toLane="1"/>

    <connection from="21to22" to="22to17" fromLane="0" toLane="0"/>
    <connection from="21to22" to="22to23" fromLane="0" toLane="0"/>
    <connection from="21to22" to="22to21" fromLane="0" toLane="0"/>
    <connection from="21to22" to="22to17" fromLane="1" toLane="1"/>
    <connection from="21to22" to="22to23" fromLane="1" toLane="1"/>
    <connection from="21to22" to="22to21" fromLane="1" toLane="1"/>

    <connection from="22to17" to="17to16" fromLane="0" toLane="0"/>
    <connection from="22to17" to="17to12" fromLane="0" toLane="0"/>
    <connection from="22to17" to="17to18" fromLane="0" toLane="0"/>
    <connection from="22to17" to="17to22" fromLane="0" toLane="0"/>
    <connection from="22to17" to="17to16" fromLane="1" toLane="1"/>
    <connection from="22to17" to="17to12" fromLane="1" toLane="1"/>
    <connection from="22to17" to="17to18" fromLane="1" toLane="1"/>
    <connection from="22to17" to="17to22" fromLane="1" toLane="1"/>

    <connection from="22to21" to="21to20" fromLane="0" toLane="0"/>
    <connection from="22to21" to="21to16" fromLane="0" toLane="0"/>
    <connection from="22to21" to="21to22" fromLane="0" toLane="0"/>
    <connection from="22to21" to="21to20" fromLane="1" toLane="1"/>
    <connection from="22to21" to="21to16" fromLane="1" toLane="1"/>
    <connection from="22to21" to="21to22" fromLane="1" toLane="1"/>

    <connection from="22to23" to="23to18" fromLane="0" toLane="0"/>
    <connection from="22to23" to="23to24" fromLane="0" toLane="0"/>
    <connection from="22to23" to="23to22" fromLane="0" toLane="0"/>
    <connection from="22to23" to="23to18" fromLane="1" toLane="1"/>
    <connection from="22to23" to="23to24" fromLane="1" toLane="1"/>
    <connection from="22to23" to="23to22" fromLane="1" toLane="1"/>

    <connection from="23to18" to="18to17" fromLane="0" toLane="0"/>
    <connection from="23to18" to="18to13" fromLane="0" toLane="0"/>
    <connection from="23to18" to="18to19" fromLane="0" toLane="0"/>
    <connection from="23to18" to="18to23" fromLane="0" toLane="0"/>
    <connection from="23to18" to="18to17" fromLane="1" toLane="1"/>
    <connection from="23to18" to="18to13" fromLane="1" toLane="1"/>
    <connection from="23to18" to="18to19" fromLane="1" toLane="1"/>
    <connection from="23to18" to="18to23" fromLane="1" toLane="1"/>

    <connection from="23to22" to="22to21" fromLane="0" toLane="0"/>
    <connection from="23to22" to="22to17" fromLane="0" toLane="0"/>
    <connection from="23to22" to="22to23" fromLane="0" toLane="0"/>
    <connection from="23to22" to="22to21" fromLane="1" toLane="1"/>
    <connection from="23to22" to="22to17" fromLane="1" toLane="1"/>
    <connection from="23to22" to="22to23" fromLane="1" toLane="1"/>

    <connection from="23to24" to="24to19" fromLane="0" toLane="0"/>
    <connection from="23to24" to="24to23" fromLane="0" toLane="0"/>
    <connection from="23to24" to="24to19" fromLane="1" toLane="1"/>
    <connection from="23to24" to="24to23" fromLane="1" toLane="1"/>

    <connection from="24to19" to="19to18" fromLane="0" toLane="0"/>
    <connection from="24to19" to="19to14" fromLane="0" toLane="0"/>
    <connection from="24to19" to="19to24" fromLane="0" toLane="0"/>
    <connection from="24to19" to="19to18" fromLane="1" toLane="1"/>
    <connection from="24to19" to="19to14" fromLane="1" toLane="1"/>
    <connection from="24to19" to="19to24" fromLane="1" toLane="1"/>

    <connection from="24to23" to="23to22" fromLane="0" toLane="0"/>
    <connection from="24to23" to="23to18" fromLane="0" toLane="0"/>
    <connection from="24to23" to="23to24" fromLane="0" toLane="0"/>
    <connection from="24to23" to="23to22" fromLane="1" toLane="1"/>
    <connection from="24to23" to="23to18" fromLane="1" toLane="1"/>
    <connection from="24to23" to="23to24" fromLane="1" toLane="1"/>

    <connection from="2to1" to="1to6" fromLane="0" toLane="0"/>
    <connection from="2to1" to="1to0" fromLane="0" toLane="0"/>
    <connection from="2to1" to="1to2" fromLane="0" toLane="0"/>
    <connection from="2to1" to="1to6" fromLane="1" toLane="1"/>
    <connection from="2to1" to="1to0" fromLane="1" toLane="1"/>
    <connection from="2to1" to="1to2" fromLane="1" toLane="1"/>

    <connection from="2to3" to="3to4" fromLane="0" toLane="0"/>
    <connection from="2to3" to="3to8" fromLane="0" toLane="0"/>
    <connection from="2to3" to="3to2" fromLane="0" toLane="0"/>
    <connection from="2to3" to="3to4" fromLane="1" toLane="1"/>
    <connection from="2to3" to="3to8" fromLane="1" toLane="1"/>
    <connection from="2to3" to="3to2" fromLane="1" toLane="1"/>

    <connection from="2to7" to="7to8" fromLane="0" toLane="0"/>
    <connection from="2to7" to="7to12" fromLane="0" toLane="0"/>
    <connection from="2to7" to="7to6" fromLane="0" toLane="0"/>
    <connection from="2to7" to="7to2" fromLane="0" toLane="0"/>
    <connection from="2to7" to="7to8" fromLane="1" toLane="1"/>
    <connection from="2to7" to="7to12" fromLane="1" toLane="1"/>
    <connection from="2to7" to="7to6" fromLane="1" toLane="1"/>
    <connection from="2to7" to="7to2" fromLane="1" toLane="1"/>

    <connection from="3to2" to="2to7" fromLane="0" toLane="0"/>
    <connection from="3to2" to="2to1" fromLane="0" toLane="0"/>
    <connection from="3to2" to="2to3" fromLane="0" toLane="0"/>
    <connection from="3to2" to="2to7" fromLane="1" toLane="1"/>
    <connection from="3to2" to="2to1" fromLane="1" toLane="1"/>
    <connection from="3to2" to="2to3" fromLane="1" toLane="1"/>

    <connection from="3to4" to="4to9" fromLane="0" toLane="0"/>
    <connection from="3to4" to="4to3" fromLane="0" toLane="0"/>
    <connection from="3to4" to="4to9" fromLane="1" toLane="1"/>
    <connection from="3to4" to="4to3" fromLane="1" toLane="1"/>

    <connection from="3to8" to="8to9" fromLane="0" toLane="0"/>
    <connection from="3to8" to="8to13" fromLane="0" toLane="0"/>
    <connection from="3to8" to="8to7" fromLane="0" toLane="0"/>
    <connection from="3to8" to="8to3" fromLane="0" toLane="0"/>
    <connection from="3to8" to="8to9" fromLane="1" toLane="1"/>
    <connection from="3to8" to="8to13" fromLane="1" toLane="1"/>
    <connection from="3to8" to="8to7" fromLane="1" toLane="1"/>
    <connection from="3to8" to="8to3" fromLane="1" toLane="1"/>

    <connection from="4to3" to="3to8" fromLane="0" toLane="0"/>
    <connection from="4to3" to="3to2" fromLane="0" toLane="0"/>
    <connection from="4to3" to="3to4" fromLane="0" toLane="0"/>
    <connection from="4to3" to="3to8" fromLane="1" toLane="1"/>
    <connection from="4to3" to="3to2" fromLane="1" toLane="1"/>
    <connection from="4to3" to="3to4" fromLane="1" toLane="1"/>

    <connection from="4to9" to="9to14" fromLane="0" toLane="0"/>
    <connection from="4to9" to="9to8" fromLane="0" toLane="0"/>
    <connection from="4to9" to="9to4" fromLane="0" toLane="0"/>
    <connection from="4to9" to="9to14" fromLane="1" toLane="1"/>
    <connection from="4to9" to="9to8" fromLane="1" toLane="1"/>
    <connection from="4to9" to="9to4" fromLane="1" toLane="1"/>

    <connection from="5to0" to="0to1" fromLane="0" toLane="0"/>
    <connection from="5to0" to="0to5" fromLane="0" toLane="0"/>
    <connection from="5to0" to="0to1" fromLane="1" toLane="1"/>
    <connection from="5to0" to="0to5" fromLane="1" toLane="1"/>

    <connection from="5to10" to="10to11" fromLane="0" toLane="0"/>
    <connection from="5to10" to="10to15" fromLane="0" toLane="0"/>
    <connection from="5to10" to="10to5" fromLane="0" toLane="0"/>
    <connection from="5to10" to="10to11" fromLane="1" toLane="1"/>
    <connection from="5to10" to="10to15" fromLane="1" toLane="1"/>
    <connection from="5to10" to="10to5" fromLane="1" toLane="1"/>

    <connection from="5to6" to="6to1" fromLane="0" toLane="0"/>
    <connection from="5to6" to="6to7" fromLane="0" toLane="0"/>